# generated using pymatgen
data_LaH11(C3O)7
_symmetry_space_group_name_H-M   'P 1'
_cell_length_a   8.08711000
_cell_length_b   11.52130000
_cell_length_c   11.52120000
_cell_angle_alpha   73.54180000
_cell_angle_beta   88.59160000
_cell_angle_gamma   88.59160000
_symmetry_Int_Tables_number   1
_chemical_formula_structural   LaH11(C3O)7
_chemical_formula_sum   'La2 H22 C42 O14'
_cell_volume   1029.00788709
_cell_formula_units_Z   2
loop_
 _symmetry_equiv_pos_site_id
 _symmetry_equiv_pos_as_xyz
  1  'x, y, z'
loop_
 _atom_site_type_symbol
 _atom_site_label
 _atom_site_symmetry_multiplicity
 _atom_site_fract_x
 _atom_site_fract_y
 _atom_site_fract_z
 _atom_site_occupancy
  La  La0  1  0.24926000  0.01019000  0.97058000  1.0
  La  La1  1  0.74926000  0.97058000  0.01018000  1.0
  H  H2  1  0.32714000  0.09601000  0.16355000  1.0
  H  H3  1  0.82713000  0.16356000  0.09600000  1.0
  H  H4  1  0.14291000  0.14477000  0.16024000  1.0
  H  H5  1  0.64291000  0.16024000  0.14476000  1.0
  H  H6  1  0.62618000  0.71278000  0.86135000  1.0
  H  H7  1  0.12619000  0.86135000  0.71277000  1.0
  H  H8  1  0.68806000  0.54822000  0.91279000  1.0
  H  H9  1  0.18807000  0.91279000  0.54822000  1.0
  H  H10  1  0.79604000  0.34185000  0.98976000  1.0
  H  H11  1  0.29604000  0.98976000  0.34185000  1.0
  H  H12  1  0.06533000  0.37453000  0.65815000  1.0
  H  H13  1  0.56534000  0.65815000  0.37452000  1.0
  H  H14  1  0.10143000  0.46370000  0.49028000  1.0
  H  H15  1  0.60143000  0.49028000  0.46370000  1.0
  H  H16  1  0.17771000  0.58877000  0.28515000  1.0
  H  H17  1  0.67771000  0.28515000  0.58877000  1.0
  H  H18  1  0.88670000  0.88414000  0.33853000  1.0
  H  H19  1  0.38670000  0.33853000  0.88414000  1.0
  H  H20  1  0.74968000  0.95225000  0.43972000  1.0
  H  H21  1  0.24968000  0.43973000  0.95225000  1.0
  H  H22  1  0.56917000  0.03723000  0.57180000  1.0
  H  H23  1  0.06917000  0.57181000  0.03723000  1.0
  C  C24  1  0.47984000  0.92708000  0.80587000  1.0
  C  C25  1  0.97983000  0.80587000  0.92708000  1.0
  C  C26  1  0.58818000  0.87800000  0.72480000  1.0
  C  C27  1  0.08818000  0.72481000  0.87799000  1.0
  C  C28  1  0.65348000  0.76164000  0.76771000  1.0
  C  C29  1  0.15350000  0.76771000  0.76163000  1.0
  C  C30  1  0.74983000  0.70804000  0.69274000  1.0
  C  C31  1  0.24983000  0.69274000  0.70804000  1.0
  C  C32  1  0.81117000  0.58383000  0.73708000  1.0
  C  C33  1  0.31118000  0.73708000  0.58383000  1.0
  C  C34  1  0.76968000  0.51185000  0.85475000  1.0
  C  C35  1  0.26968000  0.85475000  0.51185000  1.0
  C  C36  1  0.83042000  0.39515000  0.89865000  1.0
  C  C37  1  0.33042000  0.89865000  0.39515000  1.0
  C  C38  1  0.93946000  0.34671000  0.82694000  1.0
  C  C39  1  0.43947000  0.82695000  0.34671000  1.0
  C  C40  1  0.01463000  0.22448000  0.87395000  1.0
  C  C41  1  0.51464000  0.87395000  0.22448000  1.0
  C  C42  1  0.98017000  0.41553000  0.71023000  1.0
  C  C43  1  0.48017000  0.71023000  0.41553000  1.0
  C  C44  1  0.91520000  0.53315000  0.66174000  1.0
  C  C45  1  0.41521000  0.66174000  0.53314000  1.0
  C  C46  1  0.95278000  0.60374000  0.53756000  1.0
  C  C47  1  0.45278000  0.53755000  0.60374000  1.0
  C  C48  1  0.05270000  0.55599000  0.45888000  1.0
  C  C49  1  0.55270000  0.45888000  0.55599000  1.0
  C  C50  1  0.09555000  0.62492000  0.34336000  1.0
  C  C51  1  0.59554000  0.34336000  0.62492000  1.0
  C  C52  1  0.03497000  0.74461000  0.30061000  1.0
  C  C53  1  0.53496000  0.30061000  0.74461000  1.0
  C  C54  1  0.08823000  0.82463000  0.18073000  1.0
  C  C55  1  0.58822000  0.18073000  0.82463000  1.0
  C  C56  1  0.93134000  0.79147000  0.37486000  1.0
  C  C57  1  0.43134000  0.37486000  0.79147000  1.0
  C  C58  1  0.88969000  0.72449000  0.49376000  1.0
  C  C59  1  0.38969000  0.49376000  0.72448000  1.0
  C  C60  1  0.78791000  0.77782000  0.57240000  1.0
  C  C61  1  0.28791000  0.57240000  0.77782000  1.0
  C  C62  1  0.72302000  0.89730000  0.53164000  1.0
  C  C63  1  0.22302000  0.53165000  0.89730000  1.0
  C  C64  1  0.62177000  0.94610000  0.60484000  1.0
  C  C65  1  0.12178000  0.60484000  0.94610000  1.0
  O  O66  1  0.50744000  0.89187000  0.92195000  1.0
  O  O67  1  0.00744000  0.92195000  0.89186000  1.0
  O  O68  1  0.24838000  0.15803000  0.11629000  1.0
  O  O69  1  0.74839000  0.11629000  0.15803000  1.0
  O  O70  1  0.36153000  0.99968000  0.76464000  1.0
  O  O71  1  0.86154000  0.76464000  0.99968000  1.0
  O  O72  1  0.95630000  0.15127000  0.97339000  1.0
  O  O73  1  0.45631000  0.97339000  0.15127000  1.0
  O  O74  1  0.13839000  0.19349000  0.81948000  1.0
  O  O75  1  0.63839000  0.81948000  0.19349000  1.0
  O  O76  1  0.20799000  0.79475000  0.12153000  1.0
  O  O77  1  0.70799000  0.12153000  0.79475000  1.0
  O  O78  1  0.01404000  0.92943000  0.13997000  1.0
  O  O79  1  0.51403000  0.13997000  0.92943000  1.0
