# generated using pymatgen
data_KH8C7NO3
_symmetry_space_group_name_H-M   'P 1'
_cell_length_a   7.41881000
_cell_length_b   7.53296000
_cell_length_c   14.68430000
_cell_angle_alpha   90.00000000
_cell_angle_beta   97.20040000
_cell_angle_gamma   89.99990000
_symmetry_Int_Tables_number   1
_chemical_formula_structural   KH8C7NO3
_chemical_formula_sum   'K4 H32 C28 N4 O12'
_cell_volume   814.16918437
_cell_formula_units_Z   4
loop_
 _symmetry_equiv_pos_site_id
 _symmetry_equiv_pos_as_xyz
  1  'x, y, z'
loop_
 _atom_site_type_symbol
 _atom_site_label
 _atom_site_symmetry_multiplicity
 _atom_site_fract_x
 _atom_site_fract_y
 _atom_site_fract_z
 _atom_site_occupancy
  K  K0  1  0.56845000  0.24498000  0.51893000  1.0
  K  K1  1  0.06843000  0.25504000  0.51893000  1.0
  K  K2  1  0.43155000  0.75504000  0.48107000  1.0
  K  K3  1  0.93156000  0.74496000  0.48107000  1.0
  H  H4  1  0.56718000  0.75102000  0.75508000  1.0
  H  H5  1  0.06720000  0.74899000  0.75508000  1.0
  H  H6  1  0.43281000  0.24898000  0.24492000  1.0
  H  H7  1  0.93281000  0.25101000  0.24492000  1.0
  H  H8  1  0.93899000  0.20153000  0.93809000  1.0
  H  H9  1  0.43899000  0.29847000  0.93809000  1.0
  H  H10  1  0.06101000  0.79846000  0.06191000  1.0
  H  H11  1  0.56101000  0.70153000  0.06191000  1.0
  H  H12  1  0.78687000  0.56010000  0.63860000  1.0
  H  H13  1  0.28687000  0.93991000  0.63861000  1.0
  H  H14  1  0.21313000  0.43990000  0.36140000  1.0
  H  H15  1  0.71314000  0.06010000  0.36139000  1.0
  H  H16  1  0.52099000  0.79825000  0.91785000  1.0
  H  H17  1  0.02100000  0.70177000  0.91785000  1.0
  H  H18  1  0.47900000  0.20176000  0.08215000  1.0
  H  H19  1  0.97900000  0.29824000  0.08215000  1.0
  H  H20  1  0.71466000  0.02613000  0.01108000  1.0
  H  H21  1  0.21466000  0.47388000  0.01109000  1.0
  H  H22  1  0.28534000  0.97387000  0.98892000  1.0
  H  H23  1  0.78534000  0.52612000  0.98892000  1.0
  H  H24  1  0.03715000  0.13857000  0.70660000  1.0
  H  H25  1  0.53716000  0.36143000  0.70660000  1.0
  H  H26  1  0.96284000  0.86143000  0.29340000  1.0
  H  H27  1  0.46285000  0.63857000  0.29340000  1.0
  H  H28  1  0.10117000  0.24183000  0.81074000  1.0
  H  H29  1  0.60117000  0.25817000  0.81074000  1.0
  H  H30  1  0.89883000  0.75816000  0.18927000  1.0
  H  H31  1  0.39883000  0.74183000  0.18927000  1.0
  H  H32  1  0.87981000  0.38523000  0.68622000  1.0
  H  H33  1  0.37981000  0.11476000  0.68623000  1.0
  H  H34  1  0.12019000  0.61477000  0.31378000  1.0
  H  H35  1  0.62019000  0.88524000  0.31377000  1.0
  C  C36  1  0.77200000  0.94879000  0.75313000  1.0
  C  C37  1  0.27200000  0.55121000  0.75313000  1.0
  C  C38  1  0.22800000  0.05121000  0.24687000  1.0
  C  C39  1  0.72800000  0.44879000  0.24687000  1.0
  C  C40  1  0.78339000  0.91384000  0.65322000  1.0
  C  C41  1  0.28339000  0.58616000  0.65322000  1.0
  C  C42  1  0.21661000  0.08616000  0.34678000  1.0
  C  C43  1  0.71661000  0.41384000  0.34678000  1.0
  C  C44  1  0.64706000  0.84984000  0.79637000  1.0
  C  C45  1  0.14706000  0.65017000  0.79637000  1.0
  C  C46  1  0.35294000  0.15016000  0.20363000  1.0
  C  C47  1  0.85294000  0.34983000  0.20362000  1.0
  C  C48  1  0.87868000  0.07938000  0.80496000  1.0
  C  C49  1  0.37868000  0.42062000  0.80496000  1.0
  C  C50  1  0.12132000  0.92061000  0.19504000  1.0
  C  C51  1  0.62132000  0.57938000  0.19504000  1.0
  C  C52  1  0.85524000  0.10295000  0.89818000  1.0
  C  C53  1  0.35524000  0.39705000  0.89818000  1.0
  C  C54  1  0.14476000  0.89704000  0.10182000  1.0
  C  C55  1  0.64476000  0.60295000  0.10182000  1.0
  C  C56  1  0.72890000  0.00358000  0.93889000  1.0
  C  C57  1  0.22890000  0.49642000  0.93889000  1.0
  C  C58  1  0.27110000  0.99641000  0.06111000  1.0
  C  C59  1  0.77110000  0.50358000  0.06111000  1.0
  C  C60  1  0.62215000  0.87619000  0.88770000  1.0
  C  C61  1  0.12216000  0.62381000  0.88770000  1.0
  C  C62  1  0.37784000  0.12380000  0.11230000  1.0
  C  C63  1  0.87784000  0.37618000  0.11230000  1.0
  N  N64  1  0.99974000  0.18720000  0.76634000  1.0
  N  N65  1  0.49974000  0.31280000  0.76634000  1.0
  N  N66  1  0.00026000  0.81279000  0.23366000  1.0
  N  N67  1  0.50026000  0.68720000  0.23366000  1.0
  O  O68  1  0.86195000  0.02689000  0.60695000  1.0
  O  O69  1  0.36196000  0.47311000  0.60695000  1.0
  O  O70  1  0.13805000  0.97311000  0.39305000  1.0
  O  O71  1  0.63805000  0.52689000  0.39305000  1.0
  O  O72  1  0.70960000  0.77168000  0.61846000  1.0
  O  O73  1  0.20961000  0.72832000  0.61846000  1.0
  O  O74  1  0.29040000  0.22831000  0.38154000  1.0
  O  O75  1  0.79040000  0.27169000  0.38154000  1.0
  O  O76  1  0.82607000  0.43650000  0.62735000  1.0
  O  O77  1  0.32607000  0.06351000  0.62735000  1.0
  O  O78  1  0.17393000  0.56351000  0.37265000  1.0
  O  O79  1  0.67394000  0.93649000  0.37264000  1.0
