# generated using pymatgen
data_Al2H8C23(Br3O8)2
_symmetry_space_group_name_H-M   'P 1'
_cell_length_a   7.16386000
_cell_length_b   17.21540000
_cell_length_c   20.82110000
_cell_angle_alpha   72.24350000
_cell_angle_beta   89.99920000
_cell_angle_gamma   89.99580000
_symmetry_Int_Tables_number   1
_chemical_formula_structural   Al2H8C23(Br3O8)2
_chemical_formula_sum   'Al4 H16 C46 Br12 O32'
_cell_volume   2445.51073720
_cell_formula_units_Z   2
loop_
 _symmetry_equiv_pos_site_id
 _symmetry_equiv_pos_as_xyz
  1  'x, y, z'
loop_
 _atom_site_type_symbol
 _atom_site_label
 _atom_site_symmetry_multiplicity
 _atom_site_fract_x
 _atom_site_fract_y
 _atom_site_fract_z
 _atom_site_occupancy
  Al  Al0  1  0.06384000  0.49923000  0.50306000  1.0
  Al  Al1  1  0.56383000  0.50080000  0.49691000  1.0
  Al  Al2  1  0.70395000  0.00108000  0.99823000  1.0
  Al  Al3  1  0.20395000  0.99893000  0.00175000  1.0
  H  H4  1  0.81075000  0.81190000  0.64382000  1.0
  H  H5  1  0.31072000  0.18803000  0.35618000  1.0
  H  H6  1  0.12892000  0.82341000  0.72609000  1.0
  H  H7  1  0.62891000  0.17657000  0.27389000  1.0
  H  H8  1  0.86834000  0.59924000  0.81075000  1.0
  H  H9  1  0.36818000  0.40074000  0.18930000  1.0
  H  H10  1  0.24776000  0.55946000  0.82165000  1.0
  H  H11  1  0.74769000  0.44055000  0.17841000  1.0
  H  H12  1  0.06246000  0.64244000  0.98054000  1.0
  H  H13  1  0.56236000  0.35764000  0.01946000  1.0
  H  H14  1  0.45681000  0.55451000  0.73964000  1.0
  H  H15  1  0.95677000  0.44543000  0.26043000  1.0
  H  H16  1  0.31590000  0.60222000  0.50085000  1.0
  H  H17  1  0.81593000  0.39780000  0.49917000  1.0
  H  H18  1  0.45564000  0.89437000  0.00751000  1.0
  H  H19  1  0.95561000  0.10546000  0.99303000  1.0
  C  C20  1  0.30716000  0.42446000  0.42304000  1.0
  C  C21  1  0.80718000  0.57555000  0.57695000  1.0
  C  C22  1  0.32073000  0.39268000  0.60237000  1.0
  C  C23  1  0.82076000  0.60733000  0.39760000  1.0
  C  C24  1  0.83716000  0.66761000  0.33219000  1.0
  C  C25  1  0.33716000  0.33240000  0.66777000  1.0
  C  C26  1  0.87020000  0.71860000  0.27799000  1.0
  C  C27  1  0.37026000  0.28142000  0.72197000  1.0
  C  C28  1  0.90463000  0.77526000  0.21827000  1.0
  C  C29  1  0.40467000  0.22476000  0.78169000  1.0
  C  C30  1  0.93614000  0.82686000  0.16426000  1.0
  C  C31  1  0.43615000  0.17313000  0.83570000  1.0
  C  C32  1  0.77536000  0.83678000  0.73725000  1.0
  C  C33  1  0.27532000  0.16319000  0.26274000  1.0
  C  C34  1  0.07860000  0.76528000  0.75977000  1.0
  C  C35  1  0.57856000  0.23470000  0.24022000  1.0
  C  C36  1  0.03624000  0.70850000  0.71629000  1.0
  C  C37  1  0.53615000  0.29146000  0.28372000  1.0
  C  C38  1  0.79742000  0.61742000  0.62703000  1.0
  C  C39  1  0.29734000  0.38255000  0.37298000  1.0
  C  C40  1  0.90327000  0.78545000  0.79708000  1.0
  C  C41  1  0.40323000  0.21455000  0.20291000  1.0
  C  C42  1  0.73611000  0.78401000  0.69090000  1.0
  C  C43  1  0.23606000  0.21594000  0.30910000  1.0
  C  C44  1  0.81795000  0.69546000  0.71856000  1.0
  C  C45  1  0.31784000  0.30449000  0.28147000  1.0
  C  C46  1  0.76493000  0.64909000  0.79424000  1.0
  C  C47  1  0.26480000  0.35088000  0.20579000  1.0
  C  C48  1  0.81364000  0.70112000  0.84140000  1.0
  C  C49  1  0.31355000  0.29888000  0.15861000  1.0
  C  C50  1  0.78227000  0.65020000  0.67083000  1.0
  C  C51  1  0.28217000  0.34976000  0.32920000  1.0
  C  C52  1  0.94983000  0.83628000  0.83884000  1.0
  C  C53  1  0.44978000  0.16377000  0.16111000  1.0
  C  C54  1  0.95812000  0.88017000  0.87449000  1.0
  C  C55  1  0.45806000  0.11994000  0.12541000  1.0
  C  C56  1  0.44915000  0.11060000  0.89991000  1.0
  C  C57  1  0.94916000  0.88938000  0.10005000  1.0
  C  C58  1  0.45740000  0.07388000  0.07818000  1.0
  C  C59  1  0.95743000  0.92620000  0.92175000  1.0
  C  C60  1  0.15426000  0.62871000  0.73565000  1.0
  C  C61  1  0.65418000  0.37125000  0.26436000  1.0
  C  C62  1  0.93028000  0.64564000  0.90217000  1.0
  C  C63  1  0.43022000  0.35438000  0.09787000  1.0
  C  C64  1  0.59169000  0.59483000  0.80375000  1.0
  C  C65  1  0.09156000  0.40514000  0.19627000  1.0
  Br  Br66  1  0.56491000  0.89020000  0.76512000  1.0
  Br  Br67  1  0.06486000  0.10982000  0.23483000  1.0
  Br  Br68  1  0.48441000  0.78480000  0.65777000  1.0
  Br  Br69  1  0.98437000  0.21513000  0.34226000  1.0
  Br  Br70  1  0.92422000  0.93563000  0.68215000  1.0
  Br  Br71  1  0.42416000  0.06434000  0.31782000  1.0
  Br  Br72  1  0.28015000  0.73290000  0.82339000  1.0
  Br  Br73  1  0.78007000  0.26709000  0.17660000  1.0
  Br  Br74  1  0.09961000  0.76478000  0.61909000  1.0
  Br  Br75  1  0.59954000  0.23518000  0.38090000  1.0
  Br  Br76  1  0.61474000  0.72136000  0.90289000  1.0
  Br  Br77  1  0.11472000  0.27867000  0.09708000  1.0
  O  O78  1  0.47723000  0.41516000  0.57352000  1.0
  O  O79  1  0.97728000  0.58487000  0.42645000  1.0
  O  O80  1  0.15047000  0.43821000  0.44662000  1.0
  O  O81  1  0.65049000  0.56184000  0.55336000  1.0
  O  O82  1  0.15656000  0.41537000  0.58121000  1.0
  O  O83  1  0.65660000  0.58464000  0.41875000  1.0
  O  O84  1  0.97039000  0.55732000  0.56150000  1.0
  O  O85  1  0.47037000  0.44269000  0.43847000  1.0
  O  O86  1  0.31369000  0.54887000  0.49408000  1.0
  O  O87  1  0.81369000  0.45117000  0.50589000  1.0
  O  O88  1  0.29591000  0.05535000  0.06154000  1.0
  O  O89  1  0.79595000  0.94471000  0.93842000  1.0
  O  O90  1  0.61222000  0.08755000  0.92230000  1.0
  O  O91  1  0.11224000  0.91243000  0.07768000  1.0
  O  O92  1  0.61682000  0.05867000  0.05755000  1.0
  O  O93  1  0.11682000  0.94137000  0.94241000  1.0
  O  O94  1  0.79131000  0.91373000  0.07302000  1.0
  O  O95  1  0.29132000  0.08626000  0.92694000  1.0
  O  O96  1  0.45450000  0.95161000  0.00482000  1.0
  O  O97  1  0.95449000  0.04838000  0.99521000  1.0
  O  O98  1  0.26531000  0.61043000  0.69812000  1.0
  O  O99  1  0.12785000  0.58406000  0.79982000  1.0
  O  O100  1  0.76522000  0.38952000  0.30191000  1.0
  O  O101  1  0.62779000  0.41592000  0.20021000  1.0
  O  O102  1  0.93160000  0.57177000  0.91489000  1.0
  O  O103  1  0.00726000  0.68492000  0.94266000  1.0
  O  O104  1  0.43152000  0.42825000  0.08517000  1.0
  O  O105  1  0.50726000  0.31515000  0.05735000  1.0
  O  O106  1  0.47954000  0.58044000  0.85035000  1.0
  O  O107  1  0.58714000  0.55672000  0.75646000  1.0
  O  O108  1  0.97940000  0.41951000  0.14967000  1.0
  O  O109  1  0.08705000  0.44330000  0.24354000  1.0
