# generated using pymatgen
data_Rb2H3C6(NO3)3
_symmetry_space_group_name_H-M   'P 1'
_cell_length_a   7.23514000
_cell_length_b   9.61605000
_cell_length_c   10.13910000
_cell_angle_alpha   115.30700000
_cell_angle_beta   109.79100000
_cell_angle_gamma   93.91530000
_symmetry_Int_Tables_number   1
_chemical_formula_structural   Rb2H3C6(NO3)3
_chemical_formula_sum   'Rb4 H6 C12 N6 O18'
_cell_volume   580.92728970
_cell_formula_units_Z   2
loop_
 _symmetry_equiv_pos_site_id
 _symmetry_equiv_pos_as_xyz
  1  'x, y, z'
loop_
 _atom_site_type_symbol
 _atom_site_label
 _atom_site_symmetry_multiplicity
 _atom_site_fract_x
 _atom_site_fract_y
 _atom_site_fract_z
 _atom_site_occupancy
  Rb  Rb0  1  0.93611000  0.71784000  0.07550000  1.0
  Rb  Rb1  1  0.06389000  0.28216000  0.92450000  1.0
  Rb  Rb2  1  0.54118000  0.90339000  0.28218000  1.0
  Rb  Rb3  1  0.45882000  0.09661000  0.71782000  1.0
  H  H4  1  0.59956000  0.25900000  0.30939000  1.0
  H  H5  1  0.40044000  0.74099000  0.69061000  1.0
  H  H6  1  0.18065000  0.94653000  0.98380000  1.0
  H  H7  1  0.81934000  0.05346000  0.01620000  1.0
  H  H8  1  0.18732000  0.09151000  0.13657000  1.0
  H  H9  1  0.81268000  0.90849000  0.86343000  1.0
  C  C10  1  0.70614000  0.46256000  0.29723000  1.0
  C  C11  1  0.29386000  0.53744000  0.70277000  1.0
  C  C12  1  0.79501000  0.63422000  0.37778000  1.0
  C  C13  1  0.20499000  0.36578000  0.62222000  1.0
  C  C14  1  0.85649000  0.70890000  0.54865000  1.0
  C  C15  1  0.14350000  0.29110000  0.45135000  1.0
  C  C16  1  0.82524000  0.63477000  0.63915000  1.0
  C  C17  1  0.17476000  0.36523000  0.36085000  1.0
  C  C18  1  0.73454000  0.46242000  0.54324000  1.0
  C  C19  1  0.26545000  0.53758000  0.45676000  1.0
  C  C20  1  0.67329000  0.38519000  0.37793000  1.0
  C  C21  1  0.32671000  0.61482000  0.62207000  1.0
  N  N22  1  0.64032000  0.36958000  0.12837000  1.0
  N  N23  1  0.35968000  0.63042000  0.87163000  1.0
  N  N24  1  0.94773000  0.87548000  0.63607000  1.0
  N  N25  1  0.05227000  0.12452000  0.36394000  1.0
  N  N26  1  0.69914000  0.36796000  0.61212000  1.0
  N  N27  1  0.30086000  0.63203000  0.38788000  1.0
  O  O28  1  0.49887000  0.24536000  0.05514000  1.0
  O  O29  1  0.50113000  0.75464000  0.94486000  1.0
  O  O30  1  0.72403000  0.41180000  0.05698000  1.0
  O  O31  1  0.27598000  0.58820000  0.94303000  1.0
  O  O32  1  0.81328000  0.70847000  0.30477000  1.0
  O  O33  1  0.18672000  0.29153000  0.69523000  1.0
  O  O34  1  0.86610000  0.96578000  0.58942000  1.0
  O  O35  1  0.13391000  0.03422000  0.41058000  1.0
  O  O36  1  0.11234000  0.92828000  0.75862000  1.0
  O  O37  1  0.88767000  0.07172000  0.24138000  1.0
  O  O38  1  0.85906000  0.71481000  0.78508000  1.0
  O  O39  1  0.14094000  0.28518000  0.21492000  1.0
  O  O40  1  0.76037000  0.42624000  0.76103000  1.0
  O  O41  1  0.23963000  0.57376000  0.23897000  1.0
  O  O42  1  0.60494000  0.22316000  0.52124000  1.0
  O  O43  1  0.39506000  0.77684000  0.47875000  1.0
  O  O44  1  0.21691000  0.98547000  0.09778000  1.0
  O  O45  1  0.78309000  0.01453000  0.90222000  1.0
