# generated using pymatgen
data_NiH26C33(NO4)2
_symmetry_space_group_name_H-M   'P 1'
_cell_length_a   7.81893000
_cell_length_b   13.91320000
_cell_length_c   16.08110000
_cell_angle_alpha   71.34800000
_cell_angle_beta   89.99990000
_cell_angle_gamma   89.99980000
_symmetry_Int_Tables_number   1
_chemical_formula_structural   NiH26C33(NO4)2
_chemical_formula_sum   'Ni2 H52 C66 N4 O16'
_cell_volume   1657.52271422
_cell_formula_units_Z   2
loop_
 _symmetry_equiv_pos_site_id
 _symmetry_equiv_pos_as_xyz
  1  'x, y, z'
loop_
 _atom_site_type_symbol
 _atom_site_label
 _atom_site_symmetry_multiplicity
 _atom_site_fract_x
 _atom_site_fract_y
 _atom_site_fract_z
 _atom_site_occupancy
  Ni  Ni0  1  0.99236000  0.50000000  0.25000000  1.0
  Ni  Ni1  1  0.00764000  0.50000000  0.75000000  1.0
  H  H2  1  0.03723000  0.82971000  0.35223000  1.0
  H  H3  1  0.03723000  0.17029000  0.14777000  1.0
  H  H4  1  0.96277000  0.17029000  0.64776000  1.0
  H  H5  1  0.96278000  0.82971000  0.85224000  1.0
  H  H6  1  0.21307000  0.71618000  0.46846000  1.0
  H  H7  1  0.21308000  0.28382000  0.03153000  1.0
  H  H8  1  0.78694000  0.28383000  0.53153000  1.0
  H  H9  1  0.78693000  0.71617000  0.96847000  1.0
  H  H10  1  0.38414000  0.78383000  0.56987000  1.0
  H  H11  1  0.38415000  0.21617000  0.93013000  1.0
  H  H12  1  0.61586000  0.21617000  0.43013000  1.0
  H  H13  1  0.61585000  0.78383000  0.06987000  1.0
  H  H14  1  0.36968000  0.96657000  0.55376000  1.0
  H  H15  1  0.36969000  0.03343000  0.94624000  1.0
  H  H16  1  0.63032000  0.03344000  0.44624000  1.0
  H  H17  1  0.63031000  0.96656000  0.05376000  1.0
  H  H18  1  0.26991000  0.13857000  0.47498000  1.0
  H  H19  1  0.26990000  0.86142000  0.02503000  1.0
  H  H20  1  0.73010000  0.86143000  0.52503000  1.0
  H  H21  1  0.73010000  0.13858000  0.97497000  1.0
  H  H22  1  0.81270000  0.93720000  0.28580000  1.0
  H  H23  1  0.81271000  0.06280000  0.21420000  1.0
  H  H24  1  0.18729000  0.06280000  0.71420000  1.0
  H  H25  1  0.18730000  0.93720000  0.78580000  1.0
  H  H26  1  0.68332000  0.38378000  0.31910000  1.0
  H  H27  1  0.68333000  0.61622000  0.18091000  1.0
  H  H28  1  0.31667000  0.61622000  0.68090000  1.0
  H  H29  1  0.31668000  0.38378000  0.81910000  1.0
  H  H30  1  0.46127000  0.37431000  0.42992000  1.0
  H  H31  1  0.46128000  0.62569000  0.07008000  1.0
  H  H32  1  0.53871000  0.62569000  0.57008000  1.0
  H  H33  1  0.53872000  0.37431000  0.92992000  1.0
  H  H34  1  0.71564000  0.62769000  0.48151000  1.0
  H  H35  1  0.71564000  0.37232000  0.01849000  1.0
  H  H36  1  0.28435000  0.37232000  0.51849000  1.0
  H  H37  1  0.28435000  0.62768000  0.98151000  1.0
  H  H38  1  0.93091000  0.62088000  0.37200000  1.0
  H  H39  1  0.93091000  0.37912000  0.12800000  1.0
  H  H40  1  0.06908000  0.37912000  0.62801000  1.0
  H  H41  1  0.06909000  0.62088000  0.87200000  1.0
  H  H42  1  0.19834000  0.43420000  0.36950000  1.0
  H  H43  1  0.19833000  0.56580000  0.13050000  1.0
  H  H44  1  0.80166000  0.56581000  0.63050000  1.0
  H  H45  1  0.80167000  0.43420000  0.86950000  1.0
  H  H46  1  0.90178000  0.26741000  0.26142000  1.0
  H  H47  1  0.90178000  0.73259000  0.23858000  1.0
  H  H48  1  0.09822000  0.73259000  0.73858000  1.0
  H  H49  1  0.09821000  0.26741000  0.76142000  1.0
  H  H50  1  0.28421000  0.54235000  0.31488000  1.0
  H  H51  1  0.28422000  0.45765000  0.18512000  1.0
  H  H52  1  0.71579000  0.45765000  0.68512000  1.0
  H  H53  1  0.71579000  0.54235000  0.81488000  1.0
  C  C54  1  0.09840000  0.28468000  0.35738000  1.0
  C  C55  1  0.09841000  0.71532000  0.14262000  1.0
  C  C56  1  0.90160000  0.71532000  0.64263000  1.0
  C  C57  1  0.90159000  0.28468000  0.85738000  1.0
  C  C58  1  0.09345000  0.17476000  0.36816000  1.0
  C  C59  1  0.09345000  0.82524000  0.13185000  1.0
  C  C60  1  0.90655000  0.82523000  0.63185000  1.0
  C  C61  1  0.90655000  0.17477000  0.86816000  1.0
  C  C62  1  0.99057000  0.13589000  0.31200000  1.0
  C  C63  1  0.99058000  0.86411000  0.18800000  1.0
  C  C64  1  0.00943000  0.86411000  0.68800000  1.0
  C  C65  1  0.00943000  0.13589000  0.81200000  1.0
  C  C66  1  0.00076000  0.03475000  0.31520000  1.0
  C  C67  1  0.00076000  0.96525000  0.18480000  1.0
  C  C68  1  0.99925000  0.96525000  0.68480000  1.0
  C  C69  1  0.99924000  0.03475000  0.81520000  1.0
  C  C70  1  0.10423000  0.96700000  0.38163000  1.0
  C  C71  1  0.10423000  0.03300000  0.11837000  1.0
  C  C72  1  0.89577000  0.03300000  0.61837000  1.0
  C  C73  1  0.89577000  0.96700000  0.88163000  1.0
  C  C74  1  0.11289000  0.86117000  0.39409000  1.0
  C  C75  1  0.11289000  0.13883000  0.10590000  1.0
  C  C76  1  0.88710000  0.13883000  0.60590000  1.0
  C  C77  1  0.88710000  0.86117000  0.89410000  1.0
  C  C78  1  0.21136000  0.79721000  0.46011000  1.0
  C  C79  1  0.21136000  0.20279000  0.03988000  1.0
  C  C80  1  0.78864000  0.20280000  0.53988000  1.0
  C  C81  1  0.78863000  0.79720000  0.96012000  1.0
  C  C82  1  0.30692000  0.83473000  0.51780000  1.0
  C  C83  1  0.30692000  0.16527000  0.98219000  1.0
  C  C84  1  0.69308000  0.16528000  0.48219000  1.0
  C  C85  1  0.69308000  0.83473000  0.01781000  1.0
  C  C86  1  0.29986000  0.93649000  0.50874000  1.0
  C  C87  1  0.29987000  0.06351000  0.99125000  1.0
  C  C88  1  0.70014000  0.06351000  0.49126000  1.0
  C  C89  1  0.70014000  0.93649000  0.00875000  1.0
  C  C90  1  0.20062000  0.00448000  0.44126000  1.0
  C  C91  1  0.20061000  0.99552000  0.05873000  1.0
  C  C92  1  0.79939000  0.99552000  0.55873000  1.0
  C  C93  1  0.79938000  0.00448000  0.94127000  1.0
  C  C94  1  0.19460000  0.10869000  0.43171000  1.0
  C  C95  1  0.19460000  0.89131000  0.06830000  1.0
  C  C96  1  0.80540000  0.89131000  0.56830000  1.0
  C  C97  1  0.80540000  0.10869000  0.93170000  1.0
  C  C98  1  0.89697000  0.00000000  0.25000000  1.0
  C  C99  1  0.10304000  0.00000000  0.75000000  1.0
  C  C100  1  0.68432000  0.43651000  0.35666000  1.0
  C  C101  1  0.68432000  0.56349000  0.14334000  1.0
  C  C102  1  0.31568000  0.56349000  0.64334000  1.0
  C  C103  1  0.31568000  0.43651000  0.85666000  1.0
  C  C104  1  0.56019000  0.43206000  0.41919000  1.0
  C  C105  1  0.56019000  0.56794000  0.08080000  1.0
  C  C106  1  0.43981000  0.56793000  0.58081000  1.0
  C  C107  1  0.43980000  0.43206000  0.91920000  1.0
  C  C108  1  0.56538000  0.50118000  0.46661000  1.0
  C  C109  1  0.56539000  0.49882000  0.03339000  1.0
  C  C110  1  0.43461000  0.49882000  0.53339000  1.0
  C  C111  1  0.43461000  0.50118000  0.96661000  1.0
  C  C112  1  0.70054000  0.57147000  0.44802000  1.0
  C  C113  1  0.70054000  0.42853000  0.05198000  1.0
  C  C114  1  0.29946000  0.42853000  0.55198000  1.0
  C  C115  1  0.29946000  0.57147000  0.94802000  1.0
  C  C116  1  0.82216000  0.56929000  0.38579000  1.0
  C  C117  1  0.82216000  0.43071000  0.11420000  1.0
  C  C118  1  0.17784000  0.43070000  0.61421000  1.0
  C  C119  1  0.17784000  0.56929000  0.88579000  1.0
  N  N120  1  0.81404000  0.50363000  0.34002000  1.0
  N  N121  1  0.81404000  0.49638000  0.15997000  1.0
  N  N122  1  0.18597000  0.49637000  0.65998000  1.0
  N  N123  1  0.18596000  0.50363000  0.84002000  1.0
  O  O124  1  0.99432000  0.34304000  0.29981000  1.0
  O  O125  1  0.99433000  0.65697000  0.20019000  1.0
  O  O126  1  0.00568000  0.65696000  0.70019000  1.0
  O  O127  1  0.00567000  0.34304000  0.79982000  1.0
  O  O128  1  0.20353000  0.31912000  0.40094000  1.0
  O  O129  1  0.20353000  0.68088000  0.09905000  1.0
  O  O130  1  0.79647000  0.68087000  0.59907000  1.0
  O  O131  1  0.79647000  0.31913000  0.90095000  1.0
  O  O132  1  0.88267000  0.19926000  0.25309000  1.0
  O  O133  1  0.88266000  0.80074000  0.24691000  1.0
  O  O134  1  0.11734000  0.80074000  0.74691000  1.0
  O  O135  1  0.11733000  0.19926000  0.75309000  1.0
  O  O136  1  0.17741000  0.51137000  0.34107000  1.0
  O  O137  1  0.17741000  0.48863000  0.15893000  1.0
  O  O138  1  0.82259000  0.48863000  0.65892000  1.0
  O  O139  1  0.82259000  0.51137000  0.84108000  1.0
