# generated using pymatgen
data_MnH6C12(NO2)2
_symmetry_space_group_name_H-M   'P 1'
_cell_length_a   6.50641000
_cell_length_b   8.78934000
_cell_length_c   8.92512000
_cell_angle_alpha   89.99980000
_cell_angle_beta   89.99990000
_cell_angle_gamma   90.00000000
_symmetry_Int_Tables_number   1
_chemical_formula_structural   MnH6C12(NO2)2
_chemical_formula_sum   'Mn2 H12 C24 N4 O8'
_cell_volume   510.40128074
_cell_formula_units_Z   2
loop_
 _symmetry_equiv_pos_site_id
 _symmetry_equiv_pos_as_xyz
  1  'x, y, z'
loop_
 _atom_site_type_symbol
 _atom_site_label
 _atom_site_symmetry_multiplicity
 _atom_site_fract_x
 _atom_site_fract_y
 _atom_site_fract_z
 _atom_site_occupancy
  Mn  Mn0  1  0.99999000  0.45313000  0.50001000  1.0
  Mn  Mn1  1  0.50000000  0.54687000  0.00000000  1.0
  H  H2  1  0.36620000  0.20971000  0.55945000  1.0
  H  H3  1  0.63379000  0.20971000  0.44055000  1.0
  H  H4  1  0.13377000  0.79029000  0.05945000  1.0
  H  H5  1  0.86621000  0.79029000  0.94055000  1.0
  H  H6  1  0.29662000  0.05605000  0.01561000  1.0
  H  H7  1  0.70338000  0.05606000  0.98439000  1.0
  H  H8  1  0.20341000  0.94394000  0.51561000  1.0
  H  H9  1  0.79662000  0.94393000  0.48439000  1.0
  H  H10  1  0.49750000  0.05327000  0.77606000  1.0
  H  H11  1  0.50249000  0.05328000  0.22394000  1.0
  H  H12  1  0.00250000  0.94672000  0.27607000  1.0
  H  H13  1  0.99750000  0.94671000  0.72393000  1.0
  C  C14  1  0.28196000  0.20128000  0.66477000  1.0
  C  C15  1  0.71804000  0.20127000  0.33524000  1.0
  C  C16  1  0.21804000  0.79874000  0.16477000  1.0
  C  C17  1  0.78195000  0.79874000  0.83523000  1.0
  C  C18  1  0.35444000  0.11666000  0.78587000  1.0
  C  C19  1  0.64556000  0.11666000  0.21413000  1.0
  C  C20  1  0.14554000  0.88334000  0.28587000  1.0
  C  C21  1  0.85446000  0.88334000  0.71414000  1.0
  C  C22  1  0.24201000  0.11820000  0.91801000  1.0
  C  C23  1  0.75799000  0.11821000  0.08200000  1.0
  C  C24  1  0.25801000  0.88181000  0.41801000  1.0
  C  C25  1  0.74201000  0.88180000  0.58199000  1.0
  C  C26  1  0.05874000  0.20168000  0.92835000  1.0
  C  C27  1  0.94126000  0.20168000  0.07166000  1.0
  C  C28  1  0.44127000  0.79834000  0.42836000  1.0
  C  C29  1  0.55874000  0.79834000  0.57162000  1.0
  C  C30  1  0.99249000  0.27788000  0.79828000  1.0
  C  C31  1  0.00751000  0.27788000  0.20174000  1.0
  C  C32  1  0.50753000  0.72211000  0.29825000  1.0
  C  C33  1  0.49247000  0.72211000  0.70174000  1.0
  C  C34  1  0.79408000  0.36696000  0.78549000  1.0
  C  C35  1  0.20591000  0.36695000  0.21452000  1.0
  C  C36  1  0.70591000  0.63305000  0.28546000  1.0
  C  C37  1  0.29408000  0.63305000  0.71453000  1.0
  N  N38  1  0.10489000  0.27763000  0.67091000  1.0
  N  N39  1  0.89510000  0.27763000  0.32910000  1.0
  N  N40  1  0.39510000  0.72237000  0.17091000  1.0
  N  N41  1  0.60490000  0.72237000  0.82909000  1.0
  O  O42  1  0.68272000  0.37762000  0.90151000  1.0
  O  O43  1  0.31727000  0.37763000  0.09849000  1.0
  O  O44  1  0.81729000  0.62237000  0.40152000  1.0
  O  O45  1  0.18272000  0.62238000  0.59846000  1.0
  O  O46  1  0.75099000  0.42192000  0.65762000  1.0
  O  O47  1  0.24902000  0.42192000  0.34239000  1.0
  O  O48  1  0.74903000  0.57807000  0.15759000  1.0
  O  O49  1  0.25098000  0.57807000  0.84239000  1.0
