# generated using pymatgen
data_CuH16C16S2Br
_symmetry_space_group_name_H-M   'P 1'
_cell_length_a   7.02625000
_cell_length_b   12.07570000
_cell_length_c   20.68140000
_cell_angle_alpha   89.99980000
_cell_angle_beta   90.00020000
_cell_angle_gamma   89.99980000
_symmetry_Int_Tables_number   1
_chemical_formula_structural   CuH16C16S2Br
_chemical_formula_sum   'Cu4 H64 C64 S8 Br4'
_cell_volume   1754.75241135
_cell_formula_units_Z   4
loop_
 _symmetry_equiv_pos_site_id
 _symmetry_equiv_pos_as_xyz
  1  'x, y, z'
loop_
 _atom_site_type_symbol
 _atom_site_label
 _atom_site_symmetry_multiplicity
 _atom_site_fract_x
 _atom_site_fract_y
 _atom_site_fract_z
 _atom_site_occupancy
  Cu  Cu0  1  0.75521000  0.33228000  0.75000000  1.0
  Cu  Cu1  1  0.74477000  0.83228000  0.25000000  1.0
  Cu  Cu2  1  0.25523000  0.16772000  0.75000000  1.0
  Cu  Cu3  1  0.24477000  0.66772000  0.25000000  1.0
  H  H4  1  0.52902000  0.23675000  0.48812000  1.0
  H  H5  1  0.97098000  0.73676000  0.98812000  1.0
  H  H6  1  0.52903000  0.23675000  0.01188000  1.0
  H  H7  1  0.02903000  0.26325000  0.48812000  1.0
  H  H8  1  0.47097000  0.76325000  0.51188000  1.0
  H  H9  1  0.02903000  0.26325000  0.01188000  1.0
  H  H10  1  0.47098000  0.76325000  0.98812000  1.0
  H  H11  1  0.97098000  0.73676000  0.51188000  1.0
  H  H12  1  0.37494000  0.31458000  0.39059000  1.0
  H  H13  1  0.12506000  0.81458000  0.89059000  1.0
  H  H14  1  0.37495000  0.31457000  0.10941000  1.0
  H  H15  1  0.87495000  0.18542000  0.39059000  1.0
  H  H16  1  0.62505000  0.68543000  0.60941000  1.0
  H  H17  1  0.87495000  0.18543000  0.10941000  1.0
  H  H18  1  0.62505000  0.68543000  0.89059000  1.0
  H  H19  1  0.12505000  0.81458000  0.60941000  1.0
  H  H20  1  0.14556000  0.57937000  0.50556000  1.0
  H  H21  1  0.35445000  0.07937000  0.00556000  1.0
  H  H22  1  0.14556000  0.57937000  0.99444000  1.0
  H  H23  1  0.64556000  0.92063000  0.50556000  1.0
  H  H24  1  0.85444000  0.42063000  0.49444000  1.0
  H  H25  1  0.64557000  0.92063000  0.99444000  1.0
  H  H26  1  0.85444000  0.42063000  0.00556000  1.0
  H  H27  1  0.35444000  0.07937000  0.49444000  1.0
  H  H28  1  0.28803000  0.49709000  0.60391000  1.0
  H  H29  1  0.21197000  0.99709000  0.10391000  1.0
  H  H30  1  0.28803000  0.49709000  0.89609000  1.0
  H  H31  1  0.78804000  0.00292000  0.60391000  1.0
  H  H32  1  0.71196000  0.50291000  0.39609000  1.0
  H  H33  1  0.78804000  0.00291000  0.89609000  1.0
  H  H34  1  0.71196000  0.50290000  0.10391000  1.0
  H  H35  1  0.21197000  0.99708000  0.39609000  1.0
  H  H36  1  0.64127000  0.26221000  0.59537000  1.0
  H  H37  1  0.85873000  0.76221000  0.09537000  1.0
  H  H38  1  0.64128000  0.26221000  0.90463000  1.0
  H  H39  1  0.14127000  0.23779000  0.59537000  1.0
  H  H40  1  0.35872000  0.73778000  0.40463000  1.0
  H  H41  1  0.14127000  0.23779000  0.90463000  1.0
  H  H42  1  0.35872000  0.73779000  0.09537000  1.0
  H  H43  1  0.85873000  0.76221000  0.40463000  1.0
  H  H44  1  0.43514000  0.27141000  0.64410000  1.0
  H  H45  1  0.06487000  0.77141000  0.14409000  1.0
  H  H46  1  0.43515000  0.27142000  0.85591000  1.0
  H  H47  1  0.93514000  0.22859000  0.64409000  1.0
  H  H48  1  0.56486000  0.72859000  0.35590000  1.0
  H  H49  1  0.93514000  0.22859000  0.85591000  1.0
  H  H50  1  0.56486000  0.72859000  0.14410000  1.0
  H  H51  1  0.06486000  0.77141000  0.35591000  1.0
  H  H52  1  0.88541000  0.54186000  0.65359000  1.0
  H  H53  1  0.61459000  0.04185000  0.15359000  1.0
  H  H54  1  0.88542000  0.54186000  0.84641000  1.0
  H  H55  1  0.38542000  0.95815000  0.65359000  1.0
  H  H56  1  0.11458000  0.45814000  0.34641000  1.0
  H  H57  1  0.38542000  0.95815000  0.84641000  1.0
  H  H58  1  0.11458000  0.45814000  0.15359000  1.0
  H  H59  1  0.61458000  0.04185000  0.34641000  1.0
  H  H60  1  0.92296000  0.42227000  0.60583000  1.0
  H  H61  1  0.57704000  0.92227000  0.10582000  1.0
  H  H62  1  0.92297000  0.42227000  0.89418000  1.0
  H  H63  1  0.42296000  0.07773000  0.60582000  1.0
  H  H64  1  0.07704000  0.57773000  0.39417000  1.0
  H  H65  1  0.42297000  0.07773000  0.89417000  1.0
  H  H66  1  0.07703000  0.57773000  0.10582000  1.0
  H  H67  1  0.57703000  0.92227000  0.39418000  1.0
  C  C68  1  0.43819000  0.30967000  0.49257000  1.0
  C  C69  1  0.06181000  0.80967000  0.99257000  1.0
  C  C70  1  0.43820000  0.30967000  0.00743000  1.0
  C  C71  1  0.93819000  0.19033000  0.49257000  1.0
  C  C72  1  0.56181000  0.69033000  0.50743000  1.0
  C  C73  1  0.93820000  0.19033000  0.00743000  1.0
  C  C74  1  0.56181000  0.69033000  0.99257000  1.0
  C  C75  1  0.06180000  0.80967000  0.50743000  1.0
  C  C76  1  0.35274000  0.35412000  0.43747000  1.0
  C  C77  1  0.14726000  0.85412000  0.93747000  1.0
  C  C78  1  0.35275000  0.35411000  0.06253000  1.0
  C  C79  1  0.85275000  0.14589000  0.43747000  1.0
  C  C80  1  0.64726000  0.64588000  0.56253000  1.0
  C  C81  1  0.85274000  0.14588000  0.06253000  1.0
  C  C82  1  0.64725000  0.64588000  0.93747000  1.0
  C  C83  1  0.14726000  0.85412000  0.56253000  1.0
  C  C84  1  0.24999000  0.45338000  0.44115000  1.0
  C  C85  1  0.25001000  0.95338000  0.94114000  1.0
  C  C86  1  0.24999000  0.45338000  0.05886000  1.0
  C  C87  1  0.74999000  0.04662000  0.44114000  1.0
  C  C88  1  0.75001000  0.54663000  0.55886000  1.0
  C  C89  1  0.75000000  0.04662000  0.05886000  1.0
  C  C90  1  0.75001000  0.54662000  0.94114000  1.0
  C  C91  1  0.25001000  0.95338000  0.55886000  1.0
  C  C92  1  0.22454000  0.50202000  0.50198000  1.0
  C  C93  1  0.27546000  0.00202000  0.00198000  1.0
  C  C94  1  0.22454000  0.50202000  0.99802000  1.0
  C  C95  1  0.72454000  0.99798000  0.50198000  1.0
  C  C96  1  0.77546000  0.49798000  0.49802000  1.0
  C  C97  1  0.72454000  0.99798000  0.99802000  1.0
  C  C98  1  0.77546000  0.49798000  0.00198000  1.0
  C  C99  1  0.27546000  0.00202000  0.49802000  1.0
  C  C100  1  0.30465000  0.45606000  0.55727000  1.0
  C  C101  1  0.19535000  0.95606000  0.05727000  1.0
  C  C102  1  0.30465000  0.45606000  0.94273000  1.0
  C  C103  1  0.80465000  0.04394000  0.55727000  1.0
  C  C104  1  0.69535000  0.54394000  0.44273000  1.0
  C  C105  1  0.80466000  0.04394000  0.94273000  1.0
  C  C106  1  0.69535000  0.54393000  0.05727000  1.0
  C  C107  1  0.19535000  0.95606000  0.44273000  1.0
  C  C108  1  0.41931000  0.36160000  0.55292000  1.0
  C  C109  1  0.08069000  0.86160000  0.05292000  1.0
  C  C110  1  0.41932000  0.36160000  0.94708000  1.0
  C  C111  1  0.91932000  0.13840000  0.55292000  1.0
  C  C112  1  0.58068000  0.63840000  0.44707000  1.0
  C  C113  1  0.91932000  0.13840000  0.94708000  1.0
  C  C114  1  0.58068000  0.63840000  0.05293000  1.0
  C  C115  1  0.08068000  0.86160000  0.44708000  1.0
  C  C116  1  0.52705000  0.31840000  0.61056000  1.0
  C  C117  1  0.97295000  0.81840000  0.11056000  1.0
  C  C118  1  0.52705000  0.31840000  0.88944000  1.0
  C  C119  1  0.02705000  0.18160000  0.61056000  1.0
  C  C120  1  0.47295000  0.68160000  0.38943000  1.0
  C  C121  1  0.02705000  0.18160000  0.88944000  1.0
  C  C122  1  0.47295000  0.68160000  0.11057000  1.0
  C  C123  1  0.97295000  0.81840000  0.38944000  1.0
  C  C124  1  0.81868000  0.48663000  0.61787000  1.0
  C  C125  1  0.68132000  0.98663000  0.11787000  1.0
  C  C126  1  0.81868000  0.48663000  0.88212000  1.0
  C  C127  1  0.31868000  0.01337000  0.61787000  1.0
  C  C128  1  0.18132000  0.51337000  0.38212000  1.0
  C  C129  1  0.31868000  0.01337000  0.88213000  1.0
  C  C130  1  0.18132000  0.51337000  0.11787000  1.0
  C  C131  1  0.68132000  0.98663000  0.38213000  1.0
  S  S132  1  0.62424000  0.42394000  0.66446000  1.0
  S  S133  1  0.87576000  0.92394000  0.16446000  1.0
  S  S134  1  0.62424000  0.42394000  0.83554000  1.0
  S  S135  1  0.12424000  0.07606000  0.66446000  1.0
  S  S136  1  0.37576000  0.57606000  0.33554000  1.0
  S  S137  1  0.12424000  0.07606000  0.83554000  1.0
  S  S138  1  0.37576000  0.57606000  0.16446000  1.0
  S  S139  1  0.87575000  0.92394000  0.33554000  1.0
  Br  Br140  1  0.10934000  0.35466000  0.75001000  1.0
  Br  Br141  1  0.39064000  0.85467000  0.24998000  1.0
  Br  Br142  1  0.60936000  0.14532000  0.75000000  1.0
  Br  Br143  1  0.89065000  0.64535000  0.24999000  1.0
