# generated using pymatgen
data_Zn4H6C18N6O13
_symmetry_space_group_name_H-M   'P 1'
_cell_length_a   18.17500000
_cell_length_b   18.20320000
_cell_length_c   18.26400000
_cell_angle_alpha   119.85500000
_cell_angle_beta   90.06080000
_cell_angle_gamma   119.90100000
_symmetry_Int_Tables_number   1
_chemical_formula_structural   Zn4H6C18N6O13
_chemical_formula_sum   'Zn8 H12 C36 N12 O26'
_cell_volume   4286.16804753
_cell_formula_units_Z   2
loop_
 _symmetry_equiv_pos_site_id
 _symmetry_equiv_pos_as_xyz
  1  'x, y, z'
loop_
 _atom_site_type_symbol
 _atom_site_label
 _atom_site_symmetry_multiplicity
 _atom_site_fract_x
 _atom_site_fract_y
 _atom_site_fract_z
 _atom_site_occupancy
  Zn  Zn0  1  0.03969000  0.09258000  0.94028000  1.0
  Zn  Zn1  1  0.85895000  0.90940000  0.93813000  1.0
  Zn  Zn2  1  0.03597000  0.08540000  0.11102000  1.0
  Zn  Zn3  1  0.03516000  0.91023000  0.93820000  1.0
  Zn  Zn4  1  0.44991000  0.91398000  0.52659000  1.0
  Zn  Zn5  1  0.62426000  0.08679000  0.52599000  1.0
  Zn  Zn6  1  0.44709000  0.08762000  0.52673000  1.0
  Zn  Zn7  1  0.44811000  0.90875000  0.34816000  1.0
  H  H8  1  0.67267000  0.88381000  0.78673000  1.0
  H  H9  1  0.57321000  0.88321000  0.68645000  1.0
  H  H10  1  0.19556000  0.39992000  0.30901000  1.0
  H  H11  1  0.29476000  0.59847000  0.40863000  1.0
  H  H12  1  0.19687000  0.88105000  0.78656000  1.0
  H  H13  1  0.29538000  0.88032000  0.68616000  1.0
  H  H14  1  0.91558000  0.11306000  0.30327000  1.0
  H  H15  1  0.81725000  0.11325000  0.40383000  1.0
  H  H16  1  0.91195000  0.59696000  0.78925000  1.0
  H  H17  1  0.81244000  0.39849000  0.68941000  1.0
  H  H18  1  0.18371000  0.10999000  0.30016000  1.0
  H  H19  1  0.28225000  0.10976000  0.40055000  1.0
  C  C20  1  0.85519000  0.00243000  0.84399000  1.0
  C  C21  1  0.79319000  0.99826000  0.78449000  1.0
  C  C22  1  0.69997000  0.93203000  0.76188000  1.0
  C  C23  1  0.64636000  0.93171000  0.70780000  1.0
  C  C24  1  0.69014000  0.99758000  0.68060000  1.0
  C  C25  1  0.63496000  0.00121000  0.62221000  1.0
  C  C26  1  0.13418000  0.28071000  0.12674000  1.0
  C  C27  1  0.19298000  0.39755000  0.18940000  1.0
  C  C28  1  0.21809000  0.44612000  0.28208000  1.0
  C  C29  1  0.27163000  0.55325000  0.33585000  1.0
  C  C30  1  0.29579000  0.60319000  0.29260000  1.0
  C  C31  1  0.35384000  0.72003000  0.34709000  1.0
  C  C32  1  0.13324000  0.00025000  0.84405000  1.0
  C  C33  1  0.19108000  0.99599000  0.78476000  1.0
  C  C34  1  0.21779000  0.92942000  0.76185000  1.0
  C  C35  1  0.27093000  0.92907000  0.70773000  1.0
  C  C36  1  0.29310000  0.99520000  0.68077000  1.0
  C  C37  1  0.35185000  0.99911000  0.62244000  1.0
  C  C38  1  0.85258000  0.99701000  0.12190000  1.0
  C  C39  1  0.79804000  0.99994000  0.18437000  1.0
  C  C40  1  0.84239000  0.06515000  0.27690000  1.0
  C  C41  1  0.78933000  0.06526000  0.33113000  1.0
  C  C42  1  0.69604000  0.00024000  0.28839000  1.0
  C  C43  1  0.63419000  0.99793000  0.34369000  1.0
  C  C44  1  0.85028000  0.71791000  0.84196000  1.0
  C  C45  1  0.79522000  0.60098000  0.78300000  1.0
  C  C46  1  0.83890000  0.55148000  0.76281000  1.0
  C  C47  1  0.78522000  0.44439000  0.70895000  1.0
  C  C48  1  0.69218000  0.39536000  0.67952000  1.0
  C  C49  1  0.63024000  0.27848000  0.62104000  1.0
  C  C50  1  0.13140000  0.99534000  0.11911000  1.0
  C  C51  1  0.18894000  0.99794000  0.18127000  1.0
  C  C52  1  0.20939000  0.06250000  0.27378000  1.0
  C  C53  1  0.26251000  0.06237000  0.32787000  1.0
  C  C54  1  0.29125000  0.99786000  0.28509000  1.0
  C  C55  1  0.35055000  0.99550000  0.34077000  1.0
  N  N56  1  0.78028000  0.05922000  0.70381000  1.0
  N  N57  1  0.83183000  0.05958000  0.75581000  1.0
  N  N58  1  0.26978000  0.55242000  0.20297000  1.0
  N  N59  1  0.21839000  0.44965000  0.15139000  1.0
  N  N60  1  0.26475000  0.05703000  0.70419000  1.0
  N  N61  1  0.21378000  0.05748000  0.75626000  1.0
  N  N62  1  0.65689000  0.93880000  0.19885000  1.0
  N  N63  1  0.70787000  0.93858000  0.14681000  1.0
  N  N64  1  0.65369000  0.44693000  0.70042000  1.0
  N  N65  1  0.70527000  0.54983000  0.75221000  1.0
  N  N66  1  0.26943000  0.93705000  0.19558000  1.0
  N  N67  1  0.21812000  0.93696000  0.14361000  1.0
  O  O68  1  0.99184000  0.99914000  0.98028000  1.0
  O  O69  1  0.81467000  0.93849000  0.86488000  1.0
  O  O70  1  0.93915000  0.06701000  0.86741000  1.0
  O  O71  1  0.67596000  0.06331000  0.60029000  1.0
  O  O72  1  0.54991000  0.93947000  0.60048000  1.0
  O  O73  1  0.11088000  0.23466000  0.16589000  1.0
  O  O74  1  0.11337000  0.23920000  0.04343000  1.0
  O  O75  1  0.37513000  0.76238000  0.30574000  1.0
  O  O76  1  0.37592000  0.76506000  0.43186000  1.0
  O  O77  1  0.10681000  0.93361000  0.86225000  1.0
  O  O78  1  0.11659000  0.06734000  0.87000000  1.0
  O  O79  1  0.37145000  0.06000000  0.59946000  1.0
  O  O80  1  0.37659000  0.93869000  0.60193000  1.0
  O  O81  1  0.93773000  0.05937000  0.16132000  1.0
  O  O82  1  0.81113000  0.93528000  0.03844000  1.0
  O  O83  1  0.55027000  0.93350000  0.30308000  1.0
  O  O84  1  0.67458000  0.06346000  0.42815000  1.0
  O  O85  1  0.93531000  0.76255000  0.86471000  1.0
  O  O86  1  0.80909000  0.76085000  0.86351000  1.0
  O  O87  1  0.54616000  0.23577000  0.59983000  1.0
  O  O88  1  0.67066000  0.23386000  0.59884000  1.0
  O  O89  1  0.11053000  0.05948000  0.15872000  1.0
  O  O90  1  0.10897000  0.93189000  0.03550000  1.0
  O  O91  1  0.37369000  0.93457000  0.30031000  1.0
  O  O92  1  0.37164000  0.05734000  0.42515000  1.0
  O  O93  1  0.49210000  0.99974000  0.48093000  1.0
