# generated using pymatgen
data_AgH10C6(N3O)2
_symmetry_space_group_name_H-M   'P 1'
_cell_length_a   11.15080000
_cell_length_b   11.36500000
_cell_length_c   11.68870000
_cell_angle_alpha   92.89910000
_cell_angle_beta   116.39900000
_cell_angle_gamma   118.46800000
_symmetry_Int_Tables_number   1
_chemical_formula_structural   AgH10C6(N3O)2
_chemical_formula_sum   'Ag4 H40 C24 N24 O8'
_cell_volume   1099.66096469
_cell_formula_units_Z   4
loop_
 _symmetry_equiv_pos_site_id
 _symmetry_equiv_pos_as_xyz
  1  'x, y, z'
loop_
 _atom_site_type_symbol
 _atom_site_label
 _atom_site_symmetry_multiplicity
 _atom_site_fract_x
 _atom_site_fract_y
 _atom_site_fract_z
 _atom_site_occupancy
  Ag  Ag0  1  0.05404000  0.37952000  0.19281000  1.0
  Ag  Ag1  1  0.94596000  0.62048000  0.80718000  1.0
  Ag  Ag2  1  0.75405000  0.51284000  0.50671000  1.0
  Ag  Ag3  1  0.24595000  0.48716000  0.49329000  1.0
  H  H4  1  0.27488000  0.00250000  0.72891000  1.0
  H  H5  1  0.72511000  0.99749000  0.27109000  1.0
  H  H6  1  0.14649000  0.05130000  0.62852000  1.0
  H  H7  1  0.85351000  0.94870000  0.37148000  1.0
  H  H8  1  0.22818000  0.86614000  0.51876000  1.0
  H  H9  1  0.77182000  0.13386000  0.48124000  1.0
  H  H10  1  0.08924000  0.90561000  0.41707000  1.0
  H  H11  1  0.91076000  0.09439000  0.58294000  1.0
  H  H12  1  0.31432000  0.16875000  0.53214000  1.0
  H  H13  1  0.68568000  0.83125000  0.46787000  1.0
  H  H14  1  0.32634000  0.06687000  0.42475000  1.0
  H  H15  1  0.67365000  0.93313000  0.57525000  1.0
  H  H16  1  0.52744000  0.05162000  0.62796000  1.0
  H  H17  1  0.47255000  0.94838000  0.37203000  1.0
  H  H18  1  0.52299000  0.15968000  0.73682000  1.0
  H  H19  1  0.47701000  0.84032000  0.26318000  1.0
  H  H20  1  0.99294000  0.61694000  0.42975000  1.0
  H  H21  1  0.00707000  0.38306000  0.57026000  1.0
  H  H22  1  0.06497000  0.59527000  0.32715000  1.0
  H  H23  1  0.93504000  0.40474000  0.67286000  1.0
  H  H24  1  0.40526000  0.07701000  0.22710000  1.0
  H  H25  1  0.59474000  0.92299000  0.77289000  1.0
  H  H26  1  0.52498000  0.22834000  0.37080000  1.0
  H  H27  1  0.47502000  0.77166000  0.62920000  1.0
  H  H28  1  0.58562000  0.02604000  0.95494000  1.0
  H  H29  1  0.41438000  0.97396000  0.04505000  1.0
  H  H30  1  0.77898000  0.17088000  0.99599000  1.0
  H  H31  1  0.22103000  0.82913000  0.00400000  1.0
  H  H32  1  0.43111000  0.33956000  0.43726000  1.0
  H  H33  1  0.56889000  0.66043000  0.56274000  1.0
  H  H34  1  0.22384000  0.27348000  0.33314000  1.0
  H  H35  1  0.77615000  0.72652000  0.66686000  1.0
  H  H36  1  0.71784000  0.70600000  0.18920000  1.0
  H  H37  1  0.28216000  0.29399000  0.81080000  1.0
  H  H38  1  0.79709000  0.67363000  0.34319000  1.0
  H  H39  1  0.20291000  0.32637000  0.65681000  1.0
  H  H40  1  0.18408000  0.53301000  0.92446000  1.0
  H  H41  1  0.81593000  0.46699000  0.07555000  1.0
  H  H42  1  0.04479000  0.40728000  0.95574000  1.0
  H  H43  1  0.95521000  0.59272000  0.04426000  1.0
  C  C44  1  0.85563000  0.41837000  0.29119000  1.0
  C  C45  1  0.14438000  0.58164000  0.70881000  1.0
  C  C46  1  0.70445000  0.20798000  0.11412000  1.0
  C  C47  1  0.29555000  0.79203000  0.88588000  1.0
  C  C48  1  0.61448000  0.23385000  0.24872000  1.0
  C  C49  1  0.38552000  0.76616000  0.75127000  1.0
  C  C50  1  0.28334000  0.48201000  0.09121000  1.0
  C  C51  1  0.71665000  0.51799000  0.90879000  1.0
  C  C52  1  0.37398000  0.41765000  0.28074000  1.0
  C  C53  1  0.62602000  0.58235000  0.71926000  1.0
  C  C54  1  0.54921000  0.56982000  0.22539000  1.0
  C  C55  1  0.45079000  0.43018000  0.77461000  1.0
  C  C56  1  0.02673000  0.83520000  0.61861000  1.0
  C  C57  1  0.97327000  0.16480000  0.38138000  1.0
  C  C58  1  0.16864000  0.96674000  0.62760000  1.0
  C  C59  1  0.83136000  0.03326000  0.37240000  1.0
  C  C60  1  0.20064000  0.94739000  0.51614000  1.0
  C  C61  1  0.79935000  0.05261000  0.48386000  1.0
  C  C62  1  0.33553000  0.08459000  0.52259000  1.0
  C  C63  1  0.66447000  0.91541000  0.47742000  1.0
  C  C64  1  0.50604000  0.13602000  0.63613000  1.0
  C  C65  1  0.49396000  0.86398000  0.36386000  1.0
  C  C66  1  0.64273000  0.26808000  0.63935000  1.0
  C  C67  1  0.35728000  0.73192000  0.36065000  1.0
  N  N68  1  0.84439000  0.33898000  0.18993000  1.0
  N  N69  1  0.15561000  0.66102000  0.81007000  1.0
  N  N70  1  0.58587000  0.15241000  0.13934000  1.0
  N  N71  1  0.41413000  0.84760000  0.86065000  1.0
  N  N72  1  0.74464000  0.36706000  0.32549000  1.0
  N  N73  1  0.25536000  0.63294000  0.67451000  1.0
  N  N74  1  0.98257000  0.55258000  0.35626000  1.0
  N  N75  1  0.01743000  0.44742000  0.64374000  1.0
  N  N76  1  0.50298000  0.17727000  0.28218000  1.0
  N  N77  1  0.49703000  0.82273000  0.71782000  1.0
  N  N78  1  0.68421000  0.13144000  0.00845000  1.0
  N  N79  1  0.31580000  0.86858000  0.99155000  1.0
  N  N80  1  0.24865000  0.41291000  0.17515000  1.0
  N  N81  1  0.75135000  0.58708000  0.82485000  1.0
  N  N82  1  0.43116000  0.56209000  0.11226000  1.0
  N  N83  1  0.56885000  0.43791000  0.88775000  1.0
  N  N84  1  0.52680000  0.49736000  0.31057000  1.0
  N  N85  1  0.47320000  0.50264000  0.68943000  1.0
  N  N86  1  0.34106000  0.34006000  0.35769000  1.0
  N  N87  1  0.65893000  0.65993000  0.64231000  1.0
  N  N88  1  0.70098000  0.65527000  0.25462000  1.0
  N  N89  1  0.29902000  0.34473000  0.74538000  1.0
  N  N90  1  0.16010000  0.46832000  0.97903000  1.0
  N  N91  1  0.83990000  0.53168000  0.02097000  1.0
  O  O92  1  0.96164000  0.71662000  0.52963000  1.0
  O  O93  1  0.03835000  0.28337000  0.47037000  1.0
  O  O94  1  0.98168000  0.84772000  0.69712000  1.0
  O  O95  1  0.01831000  0.15227000  0.30288000  1.0
  O  O96  1  0.60000000  0.32441000  0.54866000  1.0
  O  O97  1  0.40000000  0.67559000  0.45133000  1.0
  O  O98  1  0.78688000  0.31410000  0.72730000  1.0
  O  O99  1  0.21313000  0.68590000  0.27270000  1.0
