# generated using pymatgen
data_CdH8C12N6Cl
_symmetry_space_group_name_H-M   'P 1'
_cell_length_a   8.34476000
_cell_length_b   8.93953000
_cell_length_c   10.12010000
_cell_angle_alpha   72.79620000
_cell_angle_beta   87.48140000
_cell_angle_gamma   83.63620000
_symmetry_Int_Tables_number   1
_chemical_formula_structural   CdH8C12N6Cl
_chemical_formula_sum   'Cd2 H16 C24 N12 Cl2'
_cell_volume   716.67130901
_cell_formula_units_Z   2
loop_
 _symmetry_equiv_pos_site_id
 _symmetry_equiv_pos_as_xyz
  1  'x, y, z'
loop_
 _atom_site_type_symbol
 _atom_site_label
 _atom_site_symmetry_multiplicity
 _atom_site_fract_x
 _atom_site_fract_y
 _atom_site_fract_z
 _atom_site_occupancy
  Cd  Cd0  1  0.64638000  0.32887000  0.59366000  1.0
  Cd  Cd1  1  0.35362000  0.67113000  0.40634000  1.0
  H  H2  1  0.95808000  0.44351000  0.38686000  1.0
  H  H3  1  0.04192000  0.55649000  0.61314000  1.0
  H  H4  1  0.18148000  0.32137000  0.26986000  1.0
  H  H5  1  0.81852000  0.67862000  0.73014000  1.0
  H  H6  1  0.16236000  0.04594000  0.25401000  1.0
  H  H7  1  0.83764000  0.95405000  0.74599000  1.0
  H  H8  1  0.91436000  0.91989000  0.33272000  1.0
  H  H9  1  0.08564000  0.08011000  0.66728000  1.0
  H  H10  1  0.29571000  0.85845000  0.85819000  1.0
  H  H11  1  0.70428000  0.14155000  0.14181000  1.0
  H  H12  1  0.21395000  0.94863000  0.06272000  1.0
  H  H13  1  0.78605000  0.05137000  0.93728000  1.0
  H  H14  1  0.28448000  0.21928000  0.06435000  1.0
  H  H15  1  0.71552000  0.78072000  0.93564000  1.0
  H  H16  1  0.43869000  0.37400000  0.86580000  1.0
  H  H17  1  0.56130000  0.62600000  0.13420000  1.0
  C  C18  1  0.95025000  0.32845000  0.37190000  1.0
  C  C19  1  0.04975000  0.67155000  0.62809000  1.0
  C  C20  1  0.07618000  0.25900000  0.30775000  1.0
  C  C21  1  0.92382000  0.74100000  0.69225000  1.0
  C  C22  1  0.06385000  0.10927000  0.29605000  1.0
  C  C23  1  0.93615000  0.89073000  0.70395000  1.0
  C  C24  1  0.92339000  0.03759000  0.34070000  1.0
  C  C25  1  0.07660000  0.96241000  0.65931000  1.0
  C  C26  1  0.79896000  0.11856000  0.39704000  1.0
  C  C27  1  0.20104000  0.88144000  0.60296000  1.0
  C  C28  1  0.64302000  0.05407000  0.44502000  1.0
  C  C29  1  0.35697000  0.94593000  0.55497000  1.0
  C  C30  1  0.44339000  0.03231000  0.61943000  1.0
  C  C31  1  0.55661000  0.96769000  0.38057000  1.0
  C  C32  1  0.39682000  0.07390000  0.74873000  1.0
  C  C33  1  0.60318000  0.92610000  0.25128000  1.0
  C  C34  1  0.31864000  0.97504000  0.86033000  1.0
  C  C35  1  0.68136000  0.02496000  0.13967000  1.0
  C  C36  1  0.27531000  0.02605000  0.97569000  1.0
  C  C37  1  0.72469000  0.97395000  0.02431000  1.0
  C  C38  1  0.31417000  0.17303000  0.97728000  1.0
  C  C39  1  0.68584000  0.82697000  0.02272000  1.0
  C  C40  1  0.39996000  0.26152000  0.86535000  1.0
  C  C41  1  0.60004000  0.73848000  0.13465000  1.0
  N  N42  1  0.81574000  0.25894000  0.41713000  1.0
  N  N43  1  0.18426000  0.74107000  0.58287000  1.0
  N  N44  1  0.58174000  0.08370000  0.56045000  1.0
  N  N45  1  0.41826000  0.91631000  0.43955000  1.0
  N  N46  1  0.44070000  0.21325000  0.75387000  1.0
  N  N47  1  0.55930000  0.78675000  0.24613000  1.0
  N  N48  1  0.55765000  0.58354000  0.59088000  1.0
  N  N49  1  0.44235000  0.41647000  0.40913000  1.0
  N  N50  1  0.54408000  0.62521000  0.69385000  1.0
  N  N51  1  0.45593000  0.37479000  0.30614000  1.0
  N  N52  1  0.53075000  0.67031000  0.79161000  1.0
  N  N53  1  0.46925000  0.32970000  0.20840000  1.0
  Cl  Cl54  1  0.88090000  0.29365000  0.74944000  1.0
  Cl  Cl55  1  0.11910000  0.70635000  0.25057000  1.0
