# generated using pymatgen
data_CuH16C16(NO)4
_symmetry_space_group_name_H-M   'P 1'
_cell_length_a   8.32021000
_cell_length_b   8.80532367
_cell_length_c   13.77981572
_cell_angle_alpha   73.48215178
_cell_angle_beta   72.44917107
_cell_angle_gamma   61.82950888
_symmetry_Int_Tables_number   1
_chemical_formula_structural   CuH16C16(NO)4
_chemical_formula_sum   'Cu2 H32 C32 N8 O8'
_cell_volume   836.33908411
_cell_formula_units_Z   2
loop_
 _symmetry_equiv_pos_site_id
 _symmetry_equiv_pos_as_xyz
  1  'x, y, z'
loop_
 _atom_site_type_symbol
 _atom_site_label
 _atom_site_symmetry_multiplicity
 _atom_site_fract_x
 _atom_site_fract_y
 _atom_site_fract_z
 _atom_site_occupancy
  Cu  Cu0  1  0.00000000  0.00000000  0.00000000  1.0
  Cu  Cu1  1  0.00000000  0.50000000  0.50000000  1.0
  H  H2  1  0.52005000  0.86889000  0.06229000  1.0
  H  H3  1  0.45116000  0.63134000  0.43761000  1.0
  H  H4  1  0.47998000  0.13110000  0.93771000  1.0
  H  H5  1  0.54886000  0.36866000  0.56239000  1.0
  H  H6  1  0.90924000  0.95467000  0.24536000  1.0
  H  H7  1  0.10860000  0.54535000  0.25467000  1.0
  H  H8  1  0.09076000  0.04533000  0.75463000  1.0
  H  H9  1  0.89140000  0.45465000  0.74533000  1.0
  H  H10  1  0.93054000  0.43868000  0.21202000  1.0
  H  H11  1  0.58112000  0.06204000  0.28791000  1.0
  H  H12  1  0.06945000  0.56132000  0.78798000  1.0
  H  H13  1  0.41886000  0.93797000  0.71210000  1.0
  H  H14  1  0.98619000  0.36635000  0.01787000  1.0
  H  H15  1  0.37059000  0.13418000  0.48206000  1.0
  H  H16  1  0.01380000  0.63366000  0.98212000  1.0
  H  H17  1  0.62938000  0.86583000  0.51795000  1.0
  H  H18  1  0.24749000  0.80388000  0.15485000  1.0
  H  H19  1  0.20604000  0.69662000  0.34501000  1.0
  H  H20  1  0.75252000  0.19612000  0.84515000  1.0
  H  H21  1  0.79397000  0.30338000  0.65499000  1.0
  H  H22  1  0.75181000  0.27669000  0.40013000  1.0
  H  H23  1  0.42783000  0.22329000  0.09999000  1.0
  H  H24  1  0.24819000  0.72330000  0.59987000  1.0
  H  H25  1  0.57219000  0.77670000  0.90001000  1.0
  H  H26  1  0.99580000  0.16419000  0.39583000  1.0
  H  H27  1  0.55516000  0.33590000  0.10412000  1.0
  H  H28  1  0.00419000  0.83581000  0.60416000  1.0
  H  H29  1  0.44483000  0.66410000  0.89589000  1.0
  H  H30  1  0.86573000  0.04400000  0.40508000  1.0
  H  H31  1  0.31424000  0.45605000  0.09482000  1.0
  H  H32  1  0.13426000  0.95601000  0.59491000  1.0
  H  H33  1  0.68575000  0.54395000  0.90519000  1.0
  C  C34  1  0.80652000  0.81985000  0.13523000  1.0
  C  C35  1  0.76130000  0.68064000  0.36480000  1.0
  C  C36  1  0.19348000  0.18015000  0.86478000  1.0
  C  C37  1  0.23871000  0.31935000  0.63520000  1.0
  C  C38  1  0.64078000  0.78518000  0.19685000  1.0
  C  C39  1  0.62270000  0.71507000  0.30309000  1.0
  C  C40  1  0.35924000  0.21481000  0.80315000  1.0
  C  C41  1  0.37730000  0.28493000  0.69691000  1.0
  C  C42  1  0.50412000  0.81699000  0.14474000  1.0
  C  C43  1  0.46580000  0.68322000  0.35516000  1.0
  C  C44  1  0.49588000  0.18302000  0.85526000  1.0
  C  C45  1  0.53420000  0.31679000  0.64484000  1.0
  C  C46  1  0.92455000  0.07493000  0.20755000  1.0
  C  C47  1  0.20657000  0.42522000  0.29241000  1.0
  C  C48  1  0.07545000  0.92507000  0.79244000  1.0
  C  C49  1  0.79343000  0.57478000  0.70759000  1.0
  C  C50  1  0.93653000  0.32756000  0.18958000  1.0
  C  C51  1  0.45349000  0.17295000  0.31035000  1.0
  C  C52  1  0.06346000  0.67245000  0.81041000  1.0
  C  C53  1  0.54650000  0.82705000  0.68966000  1.0
  C  C54  1  0.96418000  0.29108000  0.09379000  1.0
  C  C55  1  0.34906000  0.20937000  0.40615000  1.0
  C  C56  1  0.03583000  0.70892000  0.90620000  1.0
  C  C57  1  0.65092000  0.79064000  0.59386000  1.0
  C  C58  1  0.35062000  0.78154000  0.19688000  1.0
  C  C59  1  0.32889000  0.71884000  0.30299000  1.0
  C  C60  1  0.64941000  0.21845000  0.80311000  1.0
  C  C61  1  0.67112000  0.28116000  0.69701000  1.0
  C  C62  1  0.87933000  0.16719000  0.37245000  1.0
  C  C63  1  0.41835000  0.33291000  0.12752000  1.0
  C  C64  1  0.12067000  0.83281000  0.62754000  1.0
  C  C65  1  0.58166000  0.66708000  0.87249000  1.0
  N  N66  1  0.95595000  0.13324000  0.10615000  1.0
  N  N67  1  0.19515000  0.36698000  0.39381000  1.0
  N  N68  1  0.04405000  0.86676000  0.89384000  1.0
  N  N69  1  0.80484000  0.63303000  0.60619000  1.0
  N  N70  1  0.91233000  0.18935000  0.26033000  1.0
  N  N71  1  0.36155000  0.31097000  0.23962000  1.0
  N  N72  1  0.08766000  0.81065000  0.73966000  1.0
  N  N73  1  0.63845000  0.68903000  0.76038000  1.0
  O  O74  1  0.76727000  0.96699000  0.07242000  1.0
  O  O75  1  0.80671000  0.53330000  0.42742000  1.0
  O  O76  1  0.23274000  0.03301000  0.92758000  1.0
  O  O77  1  0.19327000  0.46670000  0.57259000  1.0
  O  O78  1  0.96911000  0.70929000  0.14425000  1.0
  O  O79  1  0.82187000  0.79151000  0.35600000  1.0
  O  O80  1  0.03091000  0.29069000  0.85575000  1.0
  O  O81  1  0.17817000  0.20847000  0.64399000  1.0
