# generated using pymatgen
data_ZnSiC8S4(N2F5)2
_symmetry_space_group_name_H-M   'P 1'
_cell_length_a   7.77883000
_cell_length_b   8.93620000
_cell_length_c   8.93630000
_cell_angle_alpha   96.84440000
_cell_angle_beta   94.99290000
_cell_angle_gamma   94.99230000
_symmetry_Int_Tables_number   1
_chemical_formula_structural   ZnSiC8S4(N2F5)2
_chemical_formula_sum   'Zn1 Si1 C8 S4 N4 F10'
_cell_volume   611.43750574
_cell_formula_units_Z   1
loop_
 _symmetry_equiv_pos_site_id
 _symmetry_equiv_pos_as_xyz
  1  'x, y, z'
loop_
 _atom_site_type_symbol
 _atom_site_label
 _atom_site_symmetry_multiplicity
 _atom_site_fract_x
 _atom_site_fract_y
 _atom_site_fract_z
 _atom_site_occupancy
  Zn  Zn0  1  0.50000000  0.50000000  0.50000000  1.0
  Si  Si1  1  0.00000000  0.50000000  0.50000000  1.0
  C  C2  1  0.36816000  0.45399000  0.14347000  1.0
  C  C3  1  0.63184000  0.54600000  0.85652000  1.0
  C  C4  1  0.58781000  0.52645000  0.00394000  1.0
  C  C5  1  0.41219000  0.47354000  0.99606000  1.0
  C  C6  1  0.36817000  0.14348000  0.45398000  1.0
  C  C7  1  0.63182000  0.85652000  0.54602000  1.0
  C  C8  1  0.58778000  0.00394000  0.52646000  1.0
  C  C9  1  0.41221000  0.99606000  0.47355000  1.0
  S  S10  1  0.68322000  0.54541000  0.18688000  1.0
  S  S11  1  0.31679000  0.45459000  0.81311000  1.0
  S  S12  1  0.68321000  0.18688000  0.54543000  1.0
  S  S13  1  0.31678000  0.81311000  0.45457000  1.0
  N  N14  1  0.49590000  0.48800000  0.25288000  1.0
  N  N15  1  0.50410000  0.51200000  0.74711000  1.0
  N  N16  1  0.49591000  0.25289000  0.48800000  1.0
  N  N17  1  0.50408000  0.74711000  0.51200000  1.0
  F  F18  1  0.23262000  0.49008000  0.49007000  1.0
  F  F19  1  0.76738000  0.50994000  0.50993000  1.0
  F  F20  1  0.00001000  0.37338000  0.62662000  1.0
  F  F21  1  0.99999000  0.62664000  0.37338000  1.0
  F  F22  1  0.04786000  0.64189000  0.64187000  1.0
  F  F23  1  0.95214000  0.35813000  0.35812000  1.0
  F  F24  1  0.21095000  0.40316000  0.17256000  1.0
  F  F25  1  0.78906000  0.59683000  0.82743000  1.0
  F  F26  1  0.21095000  0.17257000  0.40313000  1.0
  F  F27  1  0.78904000  0.82743000  0.59688000  1.0
