# generated using pymatgen
data_Mo2H7C9N7O6
_symmetry_space_group_name_H-M   'P 1'
_cell_length_a   7.25737000
_cell_length_b   7.34059000
_cell_length_c   13.29700000
_cell_angle_alpha   80.44790000
_cell_angle_beta   87.94810000
_cell_angle_gamma   86.83550000
_symmetry_Int_Tables_number   1
_chemical_formula_structural   Mo2H7C9N7O6
_chemical_formula_sum   'Mo4 H14 C18 N14 O12'
_cell_volume   697.23395032
_cell_formula_units_Z   2
loop_
 _symmetry_equiv_pos_site_id
 _symmetry_equiv_pos_as_xyz
  1  'x, y, z'
loop_
 _atom_site_type_symbol
 _atom_site_label
 _atom_site_symmetry_multiplicity
 _atom_site_fract_x
 _atom_site_fract_y
 _atom_site_fract_z
 _atom_site_occupancy
  Mo  Mo0  1  0.11658000  0.20481000  0.45998000  1.0
  Mo  Mo1  1  0.88343000  0.79518000  0.54002000  1.0
  Mo  Mo2  1  0.38178000  0.81346000  0.56939000  1.0
  Mo  Mo3  1  0.61821000  0.18656000  0.43060000  1.0
  H  H4  1  0.11346000  0.37830000  0.67609000  1.0
  H  H5  1  0.88654000  0.62170000  0.32390000  1.0
  H  H6  1  0.09161000  0.05943000  0.19635000  1.0
  H  H7  1  0.90839000  0.94057000  0.80365000  1.0
  H  H8  1  0.45622000  0.61795000  0.32844000  1.0
  H  H9  1  0.54378000  0.38205000  0.67156000  1.0
  H  H10  1  0.23512000  0.98653000  0.03051000  1.0
  H  H11  1  0.76489000  0.01348000  0.96949000  1.0
  H  H12  1  0.21072000  0.82670000  0.88360000  1.0
  H  H13  1  0.78928000  0.17331000  0.11640000  1.0
  H  H14  1  0.30525000  0.29994000  0.07690000  1.0
  H  H15  1  0.69475000  0.70006000  0.92310000  1.0
  H  H16  1  0.32472000  0.45617000  0.22600000  1.0
  H  H17  1  0.67528000  0.54383000  0.77400000  1.0
  C  C18  1  0.18116000  0.97072000  0.24916000  1.0
  C  C19  1  0.81884000  0.02928000  0.75084000  1.0
  C  C20  1  0.36513000  0.74144000  0.31693000  1.0
  C  C21  1  0.63487000  0.25855000  0.68307000  1.0
  C  C22  1  0.21869000  0.44945000  0.88843000  1.0
  C  C23  1  0.78131000  0.55055000  0.11157000  1.0
  C  C24  1  0.27617000  0.73060000  0.13888000  1.0
  C  C25  1  0.72383000  0.26939000  0.86112000  1.0
  C  C26  1  0.24573000  0.83566000  0.04270000  1.0
  C  C27  1  0.75427000  0.16434000  0.95730000  1.0
  C  C28  1  0.23118000  0.74527000  0.95912000  1.0
  C  C29  1  0.76882000  0.25473000  0.04087000  1.0
  C  C30  1  0.24666000  0.55131000  0.97147000  1.0
  C  C31  1  0.75334000  0.44870000  0.02853000  1.0
  C  C32  1  0.28701000  0.44988000  0.06778000  1.0
  C  C33  1  0.71299000  0.55012000  0.93222000  1.0
  C  C34  1  0.30162000  0.53807000  0.15124000  1.0
  C  C35  1  0.69838000  0.46193000  0.84876000  1.0
  N  N36  1  0.20759000  0.98943000  0.34442000  1.0
  N  N37  1  0.79241000  0.01057000  0.65558000  1.0
  N  N38  1  0.32231000  0.84485000  0.38677000  1.0
  N  N39  1  0.67768000  0.15515000  0.61324000  1.0
  N  N40  1  0.27874000  0.81519000  0.22834000  1.0
  N  N41  1  0.72126000  0.18481000  0.77166000  1.0
  N  N42  1  0.16572000  0.52441000  0.79416000  1.0
  N  N43  1  0.83428000  0.47560000  0.20584000  1.0
  N  N44  1  0.15343000  0.37576000  0.75081000  1.0
  N  N45  1  0.84657000  0.62425000  0.24919000  1.0
  N  N46  1  0.19429000  0.21645000  0.81135000  1.0
  N  N47  1  0.80571000  0.78356000  0.18864000  1.0
  N  N48  1  0.23626000  0.26070000  0.89963000  1.0
  N  N49  1  0.76374000  0.73931000  0.10037000  1.0
  O  O50  1  0.37260000  0.13064000  0.49265000  1.0
  O  O51  1  0.62740000  0.86935000  0.50735000  1.0
  O  O52  1  0.12057000  0.89695000  0.55820000  1.0
  O  O53  1  0.87943000  0.10304000  0.44181000  1.0
  O  O54  1  0.06072000  0.30850000  0.56448000  1.0
  O  O55  1  0.93928000  0.69149000  0.43552000  1.0
  O  O56  1  0.13801000  0.38209000  0.36108000  1.0
  O  O57  1  0.86199000  0.61791000  0.63892000  1.0
  O  O58  1  0.42112000  0.84733000  0.69044000  1.0
  O  O59  1  0.57888000  0.15266000  0.30956000  1.0
  O  O60  1  0.37854000  0.57924000  0.57727000  1.0
  O  O61  1  0.62146000  0.42075000  0.42273000  1.0
