# generated using pymatgen
data_CoH11C15N2O5
_symmetry_space_group_name_H-M   'P 1'
_cell_length_a   8.02181000
_cell_length_b   9.26479000
_cell_length_c   10.05050000
_cell_angle_alpha   113.61900000
_cell_angle_beta   102.55500000
_cell_angle_gamma   102.73100000
_symmetry_Int_Tables_number   1
_chemical_formula_structural   CoH11C15N2O5
_chemical_formula_sum   'Co2 H22 C30 N4 O10'
_cell_volume   627.29896862
_cell_formula_units_Z   2
loop_
 _symmetry_equiv_pos_site_id
 _symmetry_equiv_pos_as_xyz
  1  'x, y, z'
loop_
 _atom_site_type_symbol
 _atom_site_label
 _atom_site_symmetry_multiplicity
 _atom_site_fract_x
 _atom_site_fract_y
 _atom_site_fract_z
 _atom_site_occupancy
  Co  Co0  1  0.12828000  0.15079000  0.46087000  1.0
  Co  Co1  1  0.87171000  0.84920000  0.53914000  1.0
  H  H2  1  0.33068000  0.34379000  0.37814000  1.0
  H  H3  1  0.66932000  0.65619000  0.62184000  1.0
  H  H4  1  0.47171000  0.32495000  0.51731000  1.0
  H  H5  1  0.52829000  0.67502000  0.48270000  1.0
  H  H6  1  0.15322000  0.29344000  0.97728000  1.0
  H  H7  1  0.84679000  0.70656000  0.02272000  1.0
  H  H8  1  0.96835000  0.95541000  0.12060000  1.0
  H  H9  1  0.03165000  0.04459000  0.87939000  1.0
  H  H10  1  0.75198000  0.94064000  0.89847000  1.0
  H  H11  1  0.24804000  0.05938000  0.10152000  1.0
  H  H12  1  0.67033000  0.37561000  0.22166000  1.0
  H  H13  1  0.32966000  0.62439000  0.77834000  1.0
  H  H14  1  0.88149000  0.36226000  0.43043000  1.0
  H  H15  1  0.11849000  0.63772000  0.56957000  1.0
  H  H16  1  0.30748000  0.37092000  0.80561000  1.0
  H  H17  1  0.69251000  0.62908000  0.19438000  1.0
  H  H18  1  0.51605000  0.38648000  0.03457000  1.0
  H  H19  1  0.48396000  0.61354000  0.96543000  1.0
  H  H20  1  0.57043000  0.92813000  0.72510000  1.0
  H  H21  1  0.42957000  0.07187000  0.27490000  1.0
  H  H22  1  0.35004000  0.92399000  0.51475000  1.0
  H  H23  1  0.64995000  0.07601000  0.48525000  1.0
  C  C24  1  0.88146000  0.48945000  0.86684000  1.0
  C  C25  1  0.11855000  0.51055000  0.13317000  1.0
  C  C26  1  0.96698000  0.36949000  0.85173000  1.0
  C  C27  1  0.03304000  0.63051000  0.14828000  1.0
  C  C28  1  0.08267000  0.38258000  0.98520000  1.0
  C  C29  1  0.91735000  0.61742000  0.01481000  1.0
  C  C30  1  0.74450000  0.48376000  0.73382000  1.0
  C  C31  1  0.25550000  0.51624000  0.26618000  1.0
  C  C32  1  0.95511000  0.23141000  0.70165000  1.0
  C  C33  1  0.04489000  0.76859000  0.29834000  1.0
  C  C34  1  0.89932000  0.04648000  0.13760000  1.0
  C  C35  1  0.10068000  0.95353000  0.86240000  1.0
  C  C36  1  0.77831000  0.04098000  0.01283000  1.0
  C  C37  1  0.22170000  0.95904000  0.98717000  1.0
  C  C38  1  0.69287000  0.16140000  0.03623000  1.0
  C  C39  1  0.30712000  0.83861000  0.96377000  1.0
  C  C40  1  0.73381000  0.28018000  0.19067000  1.0
  C  C41  1  0.26618000  0.71982000  0.80933000  1.0
  C  C42  1  0.85430000  0.27516000  0.31008000  1.0
  C  C43  1  0.14569000  0.72483000  0.68991000  1.0
  C  C44  1  0.36803000  0.27424000  0.79347000  1.0
  C  C45  1  0.63197000  0.72577000  0.20654000  1.0
  C  C46  1  0.48774000  0.28344000  0.92133000  1.0
  C  C47  1  0.51226000  0.71657000  0.07867000  1.0
  C  C48  1  0.56603000  0.15852000  0.90362000  1.0
  C  C49  1  0.43397000  0.84149000  0.09639000  1.0
  C  C50  1  0.51612000  0.02992000  0.75219000  1.0
  C  C51  1  0.48387000  0.97008000  0.24781000  1.0
  C  C52  1  0.39157000  0.02755000  0.63060000  1.0
  C  C53  1  0.60842000  0.97245000  0.36940000  1.0
  N  N54  1  0.93892000  0.16082000  0.28530000  1.0
  N  N55  1  0.06108000  0.83918000  0.71470000  1.0
  N  N56  1  0.31568000  0.14699000  0.64910000  1.0
  N  N57  1  0.68431000  0.85301000  0.35090000  1.0
  O  O58  1  0.70989000  0.61816000  0.75819000  1.0
  O  O59  1  0.29012000  0.38184000  0.24182000  1.0
  O  O60  1  0.66968000  0.34541000  0.60969000  1.0
  O  O61  1  0.33031000  0.65458000  0.39032000  1.0
  O  O62  1  0.02109000  0.27248000  0.61238000  1.0
  O  O63  1  0.97891000  0.72751000  0.38762000  1.0
  O  O64  1  0.89616000  0.08225000  0.68174000  1.0
  O  O65  1  0.10384000  0.91775000  0.31826000  1.0
  O  O66  1  0.33974000  0.30115000  0.45830000  1.0
  O  O67  1  0.66027000  0.69885000  0.54171000  1.0
