# generated using pymatgen
data_AgH11C17N3O4
_symmetry_space_group_name_H-M   'P 1'
_cell_length_a   4.81941000
_cell_length_b   15.98790000
_cell_length_c   19.07700000
_cell_angle_alpha   90.00000000
_cell_angle_beta   92.43010000
_cell_angle_gamma   90.00000000
_symmetry_Int_Tables_number   1
_chemical_formula_structural   AgH11C17N3O4
_chemical_formula_sum   'Ag4 H44 C68 N12 O16'
_cell_volume   1468.60376621
_cell_formula_units_Z   4
loop_
 _symmetry_equiv_pos_site_id
 _symmetry_equiv_pos_as_xyz
  1  'x, y, z'
loop_
 _atom_site_type_symbol
 _atom_site_label
 _atom_site_symmetry_multiplicity
 _atom_site_fract_x
 _atom_site_fract_y
 _atom_site_fract_z
 _atom_site_occupancy
  Ag  Ag0  1  0.69938000  0.12474000  0.01584000  1.0
  Ag  Ag1  1  0.80062000  0.62474000  0.48416000  1.0
  Ag  Ag2  1  0.30062000  0.87526000  0.98416000  1.0
  Ag  Ag3  1  0.19937000  0.37526000  0.51584000  1.0
  H  H4  1  0.65689000  0.20307000  0.86901000  1.0
  H  H5  1  0.84312000  0.70307000  0.63099000  1.0
  H  H6  1  0.34312000  0.79693000  0.13099000  1.0
  H  H7  1  0.15689000  0.29693000  0.36901000  1.0
  H  H8  1  0.84790000  0.17917000  0.75059000  1.0
  H  H9  1  0.65210000  0.67917000  0.74941000  1.0
  H  H10  1  0.15211000  0.82083000  0.24941000  1.0
  H  H11  1  0.34789000  0.32084000  0.25059000  1.0
  H  H12  1  0.21119000  0.07004000  0.73653000  1.0
  H  H13  1  0.28881000  0.57004000  0.76347000  1.0
  H  H14  1  0.78882000  0.92996000  0.26347000  1.0
  H  H15  1  0.71119000  0.42996000  0.23653000  1.0
  H  H16  1  0.16987000  0.02005000  0.95860000  1.0
  H  H17  1  0.33012000  0.52005000  0.54140000  1.0
  H  H18  1  0.83012000  0.97995000  0.04140000  1.0
  H  H19  1  0.66987000  0.47996000  0.45860000  1.0
  H  H20  1  0.18660000  0.23152000  0.05703000  1.0
  H  H21  1  0.31341000  0.73152000  0.44297000  1.0
  H  H22  1  0.81341000  0.76848000  0.94297000  1.0
  H  H23  1  0.68660000  0.26848000  0.55703000  1.0
  H  H24  1  0.84395000  0.29909000  0.13252000  1.0
  H  H25  1  0.65607000  0.79908000  0.36748000  1.0
  H  H26  1  0.15606000  0.70091000  0.86748000  1.0
  H  H27  1  0.34394000  0.20091000  0.63252000  1.0
  H  H28  1  0.76551000  0.24673000  0.25249000  1.0
  H  H29  1  0.73451000  0.74673000  0.24751000  1.0
  H  H30  1  0.23450000  0.75327000  0.74751000  1.0
  H  H31  1  0.26550000  0.25327000  0.75249000  1.0
  H  H32  1  0.03008000  0.12494000  0.30156000  1.0
  H  H33  1  0.46992000  0.62494000  0.19844000  1.0
  H  H34  1  0.96993000  0.87506000  0.69844000  1.0
  H  H35  1  0.53007000  0.37506000  0.80156000  1.0
  H  H36  1  0.80145000  0.39978000  0.06292000  1.0
  H  H37  1  0.69855000  0.89979000  0.43709000  1.0
  H  H38  1  0.19855000  0.60021000  0.93709000  1.0
  H  H39  1  0.30145000  0.10021000  0.56291000  1.0
  H  H40  1  0.54392000  0.98695000  0.73362000  1.0
  H  H41  1  0.95608000  0.48695000  0.76638000  1.0
  H  H42  1  0.45608000  0.01304000  0.26638000  1.0
  H  H43  1  0.04392000  0.51304000  0.23362000  1.0
  H  H44  1  0.17771000  0.32586000  0.90335000  1.0
  H  H45  1  0.32228000  0.82586000  0.59665000  1.0
  H  H46  1  0.82230000  0.67414000  0.09665000  1.0
  H  H47  1  0.67770000  0.17414000  0.40335000  1.0
  C  C48  1  0.81788000  0.15659000  0.86092000  1.0
  C  C49  1  0.68212000  0.65659000  0.63908000  1.0
  C  C50  1  0.18212000  0.84342000  0.13908000  1.0
  C  C51  1  0.31788000  0.34342000  0.36092000  1.0
  C  C52  1  0.92705000  0.14298000  0.79552000  1.0
  C  C53  1  0.57295000  0.64298000  0.70448000  1.0
  C  C54  1  0.07296000  0.85702000  0.20447000  1.0
  C  C55  1  0.42704000  0.35702000  0.29552000  1.0
  C  C56  1  0.12914000  0.08195000  0.78805000  1.0
  C  C57  1  0.37086000  0.58195000  0.71195000  1.0
  C  C58  1  0.87087000  0.91805000  0.21195000  1.0
  C  C59  1  0.62914000  0.41805000  0.28805000  1.0
  C  C60  1  0.22069000  0.03513000  0.84707000  1.0
  C  C61  1  0.27930000  0.53514000  0.65293000  1.0
  C  C62  1  0.77931000  0.96487000  0.15293000  1.0
  C  C63  1  0.72070000  0.46487000  0.34707000  1.0
  C  C64  1  0.10265000  0.05386000  0.91106000  1.0
  C  C65  1  0.39735000  0.55386000  0.58894000  1.0
  C  C66  1  0.89735000  0.94614000  0.08894000  1.0
  C  C67  1  0.60265000  0.44614000  0.41106000  1.0
  C  C68  1  0.42698000  0.96874000  0.84187000  1.0
  C  C69  1  0.07302000  0.46875000  0.65813000  1.0
  C  C70  1  0.57303000  0.03125000  0.15813000  1.0
  C  C71  1  0.92699000  0.53126000  0.34188000  1.0
  C  C72  1  0.29992000  0.13879000  0.13720000  1.0
  C  C73  1  0.20008000  0.63879000  0.36280000  1.0
  C  C74  1  0.70008000  0.86121000  0.86280000  1.0
  C  C75  1  0.79992000  0.36121000  0.63720000  1.0
  C  C76  1  0.15310000  0.20792000  0.10958000  1.0
  C  C77  1  0.34690000  0.70793000  0.39042000  1.0
  C  C78  1  0.84690000  0.79208000  0.89042000  1.0
  C  C79  1  0.65310000  0.29208000  0.60958000  1.0
  C  C80  1  0.96310000  0.24584000  0.15263000  1.0
  C  C81  1  0.53691000  0.74584000  0.34737000  1.0
  C  C82  1  0.03690000  0.75416000  0.84737000  1.0
  C  C83  1  0.46310000  0.25417000  0.65263000  1.0
  C  C84  1  0.91757000  0.21592000  0.22077000  1.0
  C  C85  1  0.58244000  0.71592000  0.27923000  1.0
  C  C86  1  0.08244000  0.78408000  0.77923000  1.0
  C  C87  1  0.41756000  0.28408000  0.72077000  1.0
  C  C88  1  0.06163000  0.14756000  0.24881000  1.0
  C  C89  1  0.43838000  0.64756000  0.25119000  1.0
  C  C90  1  0.93837000  0.85244000  0.75119000  1.0
  C  C91  1  0.56163000  0.35244000  0.74881000  1.0
  C  C92  1  0.25358000  0.11004000  0.20598000  1.0
  C  C93  1  0.24643000  0.61004000  0.29402000  1.0
  C  C94  1  0.74642000  0.88996000  0.79402000  1.0
  C  C95  1  0.75358000  0.38996000  0.70598000  1.0
  C  C96  1  0.51298000  0.32017000  0.96948000  1.0
  C  C97  1  0.98703000  0.82017000  0.53052000  1.0
  C  C98  1  0.48703000  0.67983000  0.03053000  1.0
  C  C99  1  0.01296000  0.17983000  0.46948000  1.0
  C  C100  1  0.49001000  0.41368000  0.98086000  1.0
  C  C101  1  0.00998000  0.91368000  0.51914000  1.0
  C  C102  1  0.50999000  0.58632000  0.01915000  1.0
  C  C103  1  0.99002000  0.08632000  0.48086000  1.0
  C  C104  1  0.31720000  0.47219000  0.94405000  1.0
  C  C105  1  0.18280000  0.97219000  0.55595000  1.0
  C  C106  1  0.68280000  0.52780000  0.05596000  1.0
  C  C107  1  0.81720000  0.02781000  0.44404000  1.0
  C  C108  1  0.11468000  0.45584000  0.88253000  1.0
  C  C109  1  0.38531000  0.95584000  0.61747000  1.0
  C  C110  1  0.88532000  0.54416000  0.11748000  1.0
  C  C111  1  0.61469000  0.04417000  0.38252000  1.0
  C  C112  1  0.66629000  0.44412000  0.03512000  1.0
  C  C113  1  0.83370000  0.94412000  0.46488000  1.0
  C  C114  1  0.33370000  0.55588000  0.96489000  1.0
  C  C115  1  0.16629000  0.05588000  0.53512000  1.0
  N  N116  1  0.90435000  0.11200000  0.91776000  1.0
  N  N117  1  0.59565000  0.61200000  0.58224000  1.0
  N  N118  1  0.09565000  0.88801000  0.08224000  1.0
  N  N119  1  0.40435000  0.38801000  0.41776000  1.0
  N  N120  1  0.50033000  0.08837000  0.10853000  1.0
  N  N121  1  0.99968000  0.58837000  0.39147000  1.0
  N  N122  1  0.49967000  0.91163000  0.89146000  1.0
  N  N123  1  0.00033000  0.41163000  0.60853000  1.0
  N  N124  1  0.57359000  0.95741000  0.78310000  1.0
  N  N125  1  0.92641000  0.45741000  0.71690000  1.0
  N  N126  1  0.42641000  0.04259000  0.21690000  1.0
  N  N127  1  0.07360000  0.54259000  0.28310000  1.0
  O  O128  1  0.70432000  0.28120000  0.00082000  1.0
  O  O129  1  0.79568000  0.78120000  0.49918000  1.0
  O  O130  1  0.29570000  0.71880000  0.99919000  1.0
  O  O131  1  0.20430000  0.21880000  0.50082000  1.0
  O  O132  1  0.32981000  0.28115000  0.92874000  1.0
  O  O133  1  0.17018000  0.78115000  0.57126000  1.0
  O  O134  1  0.67020000  0.71885000  0.07126000  1.0
  O  O135  1  0.82979000  0.21885000  0.42874000  1.0
  O  O136  1  0.03643000  0.51807000  0.84586000  1.0
  O  O137  1  0.46357000  0.01807000  0.65414000  1.0
  O  O138  1  0.96357000  0.48193000  0.15415000  1.0
  O  O139  1  0.53643000  0.98193000  0.34585000  1.0
  O  O140  1  0.02914000  0.38119000  0.86936000  1.0
  O  O141  1  0.47085000  0.88119000  0.63064000  1.0
  O  O142  1  0.97086000  0.61881000  0.13065000  1.0
  O  O143  1  0.52914000  0.11881000  0.36935000  1.0
