# generated using pymatgen
data_AlH3C17O7F6
_symmetry_space_group_name_H-M   'P 1'
_cell_length_a   6.64540000
_cell_length_b   23.62230000
_cell_length_c   26.19190000
_cell_angle_alpha   78.48250000
_cell_angle_beta   89.61050000
_cell_angle_gamma   89.50760000
_symmetry_Int_Tables_number   1
_chemical_formula_structural   AlH3C17O7F6
_chemical_formula_sum   'Al4 H12 C68 O28 F24'
_cell_volume   4028.59983015
_cell_formula_units_Z   4
loop_
 _symmetry_equiv_pos_site_id
 _symmetry_equiv_pos_as_xyz
  1  'x, y, z'
loop_
 _atom_site_type_symbol
 _atom_site_label
 _atom_site_symmetry_multiplicity
 _atom_site_fract_x
 _atom_site_fract_y
 _atom_site_fract_z
 _atom_site_occupancy
  Al  Al0  1  0.73220000  0.74604000  0.25111000  1.0
  Al  Al1  1  0.25604000  0.24992000  0.74892000  1.0
  Al  Al2  1  0.23182000  0.75116000  0.24978000  1.0
  Al  Al3  1  0.75672000  0.24764000  0.75003000  1.0
  H  H4  1  0.00302000  0.60589000  0.96589000  1.0
  H  H5  1  0.00805000  0.39359000  0.03263000  1.0
  H  H6  1  0.50753000  0.89430000  0.53478000  1.0
  H  H7  1  0.49476000  0.10577000  0.46394000  1.0
  H  H8  1  0.68567000  0.21347000  0.91250000  1.0
  H  H9  1  0.58140000  0.63570000  0.19341000  1.0
  H  H10  1  0.91644000  0.13904000  0.69286000  1.0
  H  H11  1  0.08184000  0.85904000  0.30821000  1.0
  H  H12  1  0.46959000  0.67543000  0.27722000  1.0
  H  H13  1  0.50718000  0.31671000  0.76507000  1.0
  H  H14  1  0.96633000  0.82258000  0.22505000  1.0
  H  H15  1  0.01653000  0.17584000  0.77844000  1.0
  C  C16  1  0.48716000  0.82604000  0.17505000  1.0
  C  C17  1  0.50543000  0.17050000  0.82540000  1.0
  C  C18  1  0.98869000  0.67146000  0.32600000  1.0
  C  C19  1  0.99915000  0.32440000  0.67336000  1.0
  C  C20  1  0.48413000  0.80803000  0.31640000  1.0
  C  C21  1  0.50573000  0.19068000  0.68343000  1.0
  C  C22  1  0.98844000  0.68949000  0.18447000  1.0
  C  C23  1  0.00755000  0.30995000  0.81369000  1.0
  C  C24  1  0.15119000  0.39122000  0.85014000  1.0
  C  C25  1  0.86210000  0.65886000  0.10378000  1.0
  C  C26  1  0.63717000  0.16037000  0.60236000  1.0
  C  C27  1  0.35859000  0.83940000  0.39749000  1.0
  C  C28  1  0.15024000  0.42775000  0.88593000  1.0
  C  C29  1  0.86631000  0.62131000  0.06893000  1.0
  C  C30  1  0.63489000  0.12310000  0.56725000  1.0
  C  C31  1  0.36347000  0.87703000  0.43225000  1.0
  C  C32  1  0.00615000  0.42306000  0.92567000  1.0
  C  C33  1  0.01013000  0.57707000  0.07241000  1.0
  C  C34  1  0.49270000  0.07910000  0.57085000  1.0
  C  C35  1  0.50679000  0.92081000  0.42798000  1.0
  C  C36  1  0.86301000  0.37931000  0.92758000  1.0
  C  C37  1  0.15421000  0.57386000  0.11199000  1.0
  C  C38  1  0.34726000  0.07609000  0.61051000  1.0
  C  C39  1  0.65044000  0.92321000  0.38798000  1.0
  C  C40  1  0.85965000  0.34207000  0.89263000  1.0
  C  C41  1  0.15308000  0.61019000  0.14769000  1.0
  C  C42  1  0.34607000  0.11217000  0.64635000  1.0
  C  C43  1  0.64892000  0.88677000  0.35242000  1.0
  C  C44  1  0.00725000  0.34797000  0.85302000  1.0
  C  C45  1  0.00021000  0.65247000  0.14442000  1.0
  C  C46  1  0.49822000  0.15394000  0.64319000  1.0
  C  C47  1  0.49547000  0.84526000  0.35622000  1.0
  C  C48  1  0.00296000  0.52198000  0.94687000  1.0
  C  C49  1  0.00964000  0.47752000  0.05178000  1.0
  C  C50  1  0.49954000  0.97904000  0.55203000  1.0
  C  C51  1  0.50311000  0.02101000  0.44667000  1.0
  C  C52  1  0.00536000  0.55953000  0.98126000  1.0
  C  C53  1  0.00786000  0.43994000  0.01734000  1.0
  C  C54  1  0.50386000  0.94045000  0.51855000  1.0
  C  C55  1  0.49873000  0.05961000  0.48016000  1.0
  C  C56  1  0.01046000  0.53771000  0.03514000  1.0
  C  C57  1  0.00621000  0.46179000  0.96347000  1.0
  C  C58  1  0.50625000  0.96100000  0.46448000  1.0
  C  C59  1  0.49590000  0.03906000  0.53423000  1.0
  C  C60  1  0.16557000  0.50591000  0.46685000  1.0
  C  C61  1  0.82972000  0.49011000  0.53223000  1.0
  C  C62  1  0.66380000  0.99190000  0.03482000  1.0
  C  C63  1  0.33270000  0.00814000  0.96863000  1.0
  C  C64  1  0.99934000  0.54364000  0.45491000  1.0
  C  C65  1  0.99572000  0.45225000  0.54412000  1.0
  C  C66  1  0.49815000  0.95449000  0.04649000  1.0
  C  C67  1  0.49836000  0.04556000  0.95696000  1.0
  C  C68  1  0.83156000  0.53465000  0.48877000  1.0
  C  C69  1  0.16360000  0.46130000  0.51028000  1.0
  C  C70  1  0.33274000  0.96377000  0.01227000  1.0
  C  C71  1  0.66356000  0.03632000  0.99125000  1.0
  C  C72  1  0.99920000  0.58833000  0.41053000  1.0
  C  C73  1  0.99503000  0.40738000  0.58839000  1.0
  C  C74  1  0.49685000  0.90973000  0.09082000  1.0
  C  C75  1  0.49982000  0.08994000  0.91227000  1.0
  C  C76  1  0.99654000  0.36887000  0.62691000  1.0
  C  C77  1  0.99560000  0.62670000  0.37194000  1.0
  C  C78  1  0.50089000  0.12749000  0.87297000  1.0
  C  C79  1  0.49348000  0.87117000  0.12928000  1.0
  C  C80  1  0.70337000  0.29552000  0.89926000  1.0
  C  C81  1  0.31345000  0.60659000  0.18897000  1.0
  C  C82  1  0.18443000  0.10854000  0.68781000  1.0
  C  C83  1  0.81157000  0.88919000  0.31132000  1.0
  O  O84  1  0.31082000  0.80041000  0.29817000  1.0
  O  O85  1  0.67610000  0.19743000  0.70337000  1.0
  O  O86  1  0.81413000  0.69769000  0.20257000  1.0
  O  O87  1  0.17802000  0.29386000  0.79976000  1.0
  O  O88  1  0.65495000  0.80560000  0.19355000  1.0
  O  O89  1  0.33721000  0.18605000  0.80433000  1.0
  O  O90  1  0.15629000  0.69217000  0.30763000  1.0
  O  O91  1  0.82993000  0.30353000  0.69005000  1.0
  O  O92  1  0.65018000  0.78904000  0.30281000  1.0
  O  O93  1  0.33891000  0.21024000  0.69590000  1.0
  O  O94  1  0.15369000  0.70762000  0.19833000  1.0
  O  O95  1  0.83686000  0.29774000  0.79705000  1.0
  O  O96  1  0.81537000  0.68640000  0.30740000  1.0
  O  O97  1  0.16995000  0.31069000  0.69386000  1.0
  O  O98  1  0.31361000  0.81066000  0.19325000  1.0
  O  O99  1  0.67955000  0.18860000  0.80937000  1.0
  O  O100  1  0.47941000  0.71286000  0.25374000  1.0
  O  O101  1  0.50704000  0.28300000  0.74907000  1.0
  O  O102  1  0.97785000  0.78441000  0.24727000  1.0
  O  O103  1  0.00835000  0.21239000  0.75360000  1.0
  O  O104  1  0.52249000  0.30398000  0.89658000  1.0
  O  O105  1  0.79179000  0.24253000  0.91049000  1.0
  O  O106  1  0.28513000  0.58899000  0.23542000  1.0
  O  O107  1  0.48790000  0.62729000  0.16682000  1.0
  O  O108  1  0.21191000  0.08990000  0.73409000  1.0
  O  O109  1  0.01069000  0.13039000  0.66608000  1.0
  O  O110  1  0.78596000  0.90597000  0.26468000  1.0
  O  O111  1  0.98499000  0.86862000  0.33407000  1.0
  F  F112  1  0.29146000  0.40059000  0.81196000  1.0
  F  F113  1  0.72637000  0.70246000  0.09605000  1.0
  F  F114  1  0.77153000  0.20371000  0.59481000  1.0
  F  F115  1  0.22370000  0.79617000  0.40588000  1.0
  F  F116  1  0.29585000  0.46778000  0.88200000  1.0
  F  F117  1  0.72431000  0.62814000  0.03142000  1.0
  F  F118  1  0.77719000  0.12985000  0.52943000  1.0
  F  F119  1  0.22262000  0.87077000  0.47041000  1.0
  F  F120  1  0.72235000  0.37270000  0.96614000  1.0
  F  F121  1  0.30381000  0.53396000  0.11481000  1.0
  F  F122  1  0.19872000  0.03654000  0.61330000  1.0
  F  F123  1  0.80012000  0.96247000  0.38461000  1.0
  F  F124  1  0.99278000  0.54491000  0.89500000  1.0
  F  F125  1  0.00580000  0.45467000  0.10369000  1.0
  F  F126  1  0.50427000  0.95739000  0.60415000  1.0
  F  F127  1  0.49827000  0.04265000  0.39454000  1.0
  F  F128  1  0.32423000  0.42589000  0.52010000  1.0
  F  F129  1  0.67096000  0.57012000  0.47894000  1.0
  F  F130  1  0.82360000  0.07147000  0.98160000  1.0
  F  F131  1  0.17268000  0.92874000  0.02182000  1.0
  F  F132  1  0.32798000  0.51286000  0.43540000  1.0
  F  F133  1  0.66745000  0.48335000  0.56378000  1.0
  F  F134  1  0.82390000  0.98473000  0.06660000  1.0
  F  F135  1  0.17289000  0.01518000  0.93675000  1.0
