# generated using pymatgen
data_ZrH10(C7O2)2
_symmetry_space_group_name_H-M   'P 1'
_cell_length_a   12.20140000
_cell_length_b   12.21400000
_cell_length_c   13.42420000
_cell_angle_alpha   102.34800000
_cell_angle_beta   115.76000000
_cell_angle_gamma   106.66100000
_symmetry_Int_Tables_number   1
_chemical_formula_structural   ZrH10(C7O2)2
_chemical_formula_sum   'Zr4 H40 C56 O16'
_cell_volume   1587.77869456
_cell_formula_units_Z   4
loop_
 _symmetry_equiv_pos_site_id
 _symmetry_equiv_pos_as_xyz
  1  'x, y, z'
loop_
 _atom_site_type_symbol
 _atom_site_label
 _atom_site_symmetry_multiplicity
 _atom_site_fract_x
 _atom_site_fract_y
 _atom_site_fract_z
 _atom_site_occupancy
  Zr  Zr0  1  0.24635000  0.20933000  0.02057000  1.0
  Zr  Zr1  1  0.18839000  0.72576000  0.47881000  1.0
  Zr  Zr2  1  0.75364000  0.79067000  0.97943000  1.0
  Zr  Zr3  1  0.81162000  0.27424000  0.52119000  1.0
  H  H4  1  0.99524000  0.11765000  0.75487000  1.0
  H  H5  1  0.36189000  0.74025000  0.74453000  1.0
  H  H6  1  0.00474000  0.88234000  0.24514000  1.0
  H  H7  1  0.63811000  0.25975000  0.25546000  1.0
  H  H8  1  0.00022000  0.94707000  0.85248000  1.0
  H  H9  1  0.09353000  0.64797000  0.64672000  1.0
  H  H10  1  0.99978000  0.05292000  0.14753000  1.0
  H  H11  1  0.90648000  0.35202000  0.35327000  1.0
  H  H12  1  0.24551000  0.94523000  0.93543000  1.0
  H  H13  1  0.00907000  0.81020000  0.56369000  1.0
  H  H14  1  0.75450000  0.05477000  0.06457000  1.0
  H  H15  1  0.99092000  0.18978000  0.43630000  1.0
  H  H16  1  0.39358000  0.12269000  0.89656000  1.0
  H  H17  1  0.22581000  0.99680000  0.60271000  1.0
  H  H18  1  0.60641000  0.87731000  0.10343000  1.0
  H  H19  1  0.77418000  0.00319000  0.39729000  1.0
  H  H20  1  0.24268000  0.23233000  0.79097000  1.0
  H  H21  1  0.44103000  0.95136000  0.70854000  1.0
  H  H22  1  0.75730000  0.76767000  0.20902000  1.0
  H  H23  1  0.55896000  0.04863000  0.29146000  1.0
  H  H24  1  0.96036000  0.18496000  0.96137000  1.0
  H  H25  1  0.22418000  0.49988000  0.53881000  1.0
  H  H26  1  0.03963000  0.81504000  0.03862000  1.0
  H  H27  1  0.77582000  0.50012000  0.46119000  1.0
  H  H28  1  0.14141000  0.26394000  0.19831000  1.0
  H  H29  1  0.06629000  0.44332000  0.30175000  1.0
  H  H30  1  0.85858000  0.73606000  0.80169000  1.0
  H  H31  1  0.93372000  0.55668000  0.69825000  1.0
  H  H32  1  0.36805000  0.45080000  0.25533000  1.0
  H  H33  1  0.19586000  0.61268000  0.24440000  1.0
  H  H34  1  0.63194000  0.54919000  0.74467000  1.0
  H  H35  1  0.80414000  0.38732000  0.75560000  1.0
  H  H36  1  0.32655000  0.49330000  0.05593000  1.0
  H  H37  1  0.43764000  0.77116000  0.44383000  1.0
  H  H38  1  0.67345000  0.50670000  0.94407000  1.0
  H  H39  1  0.56236000  0.22884000  0.55617000  1.0
  H  H40  1  0.07330000  0.33074000  0.87415000  1.0
  H  H41  1  0.45696000  0.70021000  0.62589000  1.0
  H  H42  1  0.92670000  0.66926000  0.12585000  1.0
  H  H43  1  0.54305000  0.29978000  0.37411000  1.0
  C  C44  1  0.28110000  0.09785000  0.17723000  1.0
  C  C45  1  0.92023000  0.60375000  0.32186000  1.0
  C  C46  1  0.71892000  0.90218000  0.82278000  1.0
  C  C47  1  0.07978000  0.39625000  0.67814000  1.0
  C  C48  1  0.29990000  0.04942000  0.26846000  1.0
  C  C49  1  0.78053000  0.53128000  0.23063000  1.0
  C  C50  1  0.70012000  0.95061000  0.73157000  1.0
  C  C51  1  0.21949000  0.46873000  0.76939000  1.0
  C  C52  1  0.31357000  0.01305000  0.34890000  1.0
  C  C53  1  0.66369000  0.46448000  0.15016000  1.0
  C  C54  1  0.68645000  0.98696000  0.65111000  1.0
  C  C55  1  0.33632000  0.53552000  0.84986000  1.0
  C  C56  1  0.52688000  0.38258000  0.04871000  1.0
  C  C57  1  0.33313000  0.97781000  0.45042000  1.0
  C  C58  1  0.47312000  0.61742000  0.95130000  1.0
  C  C59  1  0.66686000  0.02219000  0.54958000  1.0
  C  C60  1  0.07958000  0.09508000  0.79693000  1.0
  C  C61  1  0.29737000  0.78255000  0.70236000  1.0
  C  C62  1  0.92041000  0.90492000  0.20307000  1.0
  C  C63  1  0.70263000  0.21744000  0.29763000  1.0
  C  C64  1  0.08158000  0.00338000  0.84583000  1.0
  C  C65  1  0.15668000  0.73585000  0.65339000  1.0
  C  C66  1  0.91842000  0.99661000  0.15417000  1.0
  C  C67  1  0.84332000  0.26414000  0.34661000  1.0
  C  C68  1  0.21192000  0.00465000  0.89188000  1.0
  C  C69  1  0.11209000  0.82011000  0.60736000  1.0
  C  C70  1  0.78808000  0.99535000  0.10812000  1.0
  C  C71  1  0.88791000  0.17988000  0.39264000  1.0
  C  C72  1  0.28955000  0.09706000  0.87124000  1.0
  C  C73  1  0.22537000  0.91819000  0.62807000  1.0
  C  C74  1  0.71045000  0.90294000  0.12875000  1.0
  C  C75  1  0.77463000  0.08180000  0.37194000  1.0
  C  C76  1  0.20925000  0.15539000  0.81501000  1.0
  C  C77  1  0.33990000  0.89407000  0.68440000  1.0
  C  C78  1  0.79074000  0.84461000  0.18498000  1.0
  C  C79  1  0.66010000  0.10592000  0.31559000  1.0
  C  C80  1  0.06033000  0.26191000  0.01253000  1.0
  C  C81  1  0.24989000  0.54855000  0.48754000  1.0
  C  C82  1  0.93966000  0.73809000  0.98747000  1.0
  C  C83  1  0.75011000  0.45145000  0.51245000  1.0
  C  C84  1  0.15602000  0.30318000  0.13730000  1.0
  C  C85  1  0.16645000  0.51911000  0.36270000  1.0
  C  C86  1  0.84396000  0.69682000  0.86270000  1.0
  C  C87  1  0.83355000  0.48089000  0.63729000  1.0
  C  C88  1  0.27535000  0.40149000  0.16742000  1.0
  C  C89  1  0.23453000  0.60815000  0.33242000  1.0
  C  C90  1  0.72464000  0.59850000  0.83258000  1.0
  C  C91  1  0.76547000  0.39185000  0.66759000  1.0
  C  C92  1  0.25298000  0.42406000  0.06198000  1.0
  C  C93  1  0.36243000  0.69156000  0.43787000  1.0
  C  C94  1  0.74702000  0.57593000  0.93802000  1.0
  C  C95  1  0.63757000  0.30844000  0.56213000  1.0
  C  C96  1  0.12018000  0.33856000  0.96669000  1.0
  C  C97  1  0.37223000  0.65439000  0.53333000  1.0
  C  C98  1  0.87982000  0.66144000  0.03330000  1.0
  C  C99  1  0.62778000  0.34561000  0.46667000  1.0
  O  O100  1  0.16202000  0.07048000  0.09282000  1.0
  O  O101  1  0.97726000  0.56906000  0.40624000  1.0
  O  O102  1  0.83799000  0.92954000  0.90718000  1.0
  O  O103  1  0.02276000  0.43095000  0.59376000  1.0
  O  O104  1  0.38219000  0.17238000  0.18032000  1.0
  O  O105  1  0.99168000  0.70175000  0.31890000  1.0
  O  O106  1  0.61783000  0.82764000  0.81969000  1.0
  O  O107  1  0.00833000  0.29825000  0.68110000  1.0
  O  O108  1  0.44578000  0.33230000  0.08133000  1.0
  O  O109  1  0.25047000  0.86415000  0.41781000  1.0
  O  O110  1  0.55422000  0.66769000  0.91868000  1.0
  O  O111  1  0.74954000  0.13586000  0.58219000  1.0
  O  O112  1  0.50129000  0.36707000  0.94548000  1.0
  O  O113  1  0.42074000  0.05548000  0.55367000  1.0
  O  O114  1  0.49872000  0.63295000  0.05454000  1.0
  O  O115  1  0.57924000  0.94453000  0.44634000  1.0
