# generated using pymatgen
data_ZnH19C19NO4
_symmetry_space_group_name_H-M   'P 1'
_cell_length_a   8.96532000
_cell_length_b   13.95280000
_cell_length_c   15.28650000
_cell_angle_alpha   89.43100000
_cell_angle_beta   89.57210000
_cell_angle_gamma   79.95850000
_symmetry_Int_Tables_number   1
_chemical_formula_structural   ZnH19C19NO4
_chemical_formula_sum   'Zn2 H38 C38 N2 O8'
_cell_volume   1882.79186561
_cell_formula_units_Z   2
loop_
 _symmetry_equiv_pos_site_id
 _symmetry_equiv_pos_as_xyz
  1  'x, y, z'
loop_
 _atom_site_type_symbol
 _atom_site_label
 _atom_site_symmetry_multiplicity
 _atom_site_fract_x
 _atom_site_fract_y
 _atom_site_fract_z
 _atom_site_occupancy
  Zn  Zn0  1  0.48742000  0.60162000  0.50053000  1.0
  Zn  Zn1  1  0.51211000  0.39917000  0.49968000  1.0
  H  H2  1  0.02898000  0.38902000  0.49837000  1.0
  H  H3  1  0.27377000  0.78086000  0.45424000  1.0
  H  H4  1  0.28741000  0.27388000  0.54696000  1.0
  H  H5  1  0.71382000  0.72543000  0.54413000  1.0
  H  H6  1  0.27261000  0.09561000  0.54948000  1.0
  H  H7  1  0.72875000  0.90367000  0.54749000  1.0
  H  H8  1  0.15374000  0.79169000  0.92228000  1.0
  H  H9  1  0.06655000  0.83253000  0.02311000  1.0
  H  H10  1  0.21971000  0.88494000  0.98124000  1.0
  H  H11  1  0.31316000  0.76663000  0.10168000  1.0
  H  H12  1  0.39640000  0.72506000  0.00131000  1.0
  H  H13  1  0.96867000  0.61335000  0.49943000  1.0
  H  H14  1  0.20874000  0.61526000  0.98373000  1.0
  H  H15  1  0.12024000  0.65521000  0.08324000  1.0
  H  H16  1  0.12862000  0.29436000  0.08048000  1.0
  H  H17  1  0.04754000  0.27089000  0.97897000  1.0
  H  H18  1  0.19204000  0.18254000  0.02617000  1.0
  H  H19  1  0.30186000  0.27112000  0.90428000  1.0
  H  H20  1  0.38017000  0.29571000  0.00523000  1.0
  H  H21  1  0.20017000  0.45178000  0.01627000  1.0
  H  H22  1  0.11574000  0.42982000  0.91657000  1.0
  H  H23  1  0.04382000  0.55409000  0.19861000  1.0
  H  H24  1  0.66128000  0.38987000  0.21807000  1.0
  H  H25  1  0.13283000  0.50670000  0.29686000  1.0
  H  H26  1  0.00339000  0.61860000  0.29819000  1.0
  H  H27  1  0.27132000  0.64855000  0.30453000  1.0
  H  H28  1  0.18329000  0.69774000  0.20744000  1.0
  H  H29  1  0.12706000  0.56917000  0.70458000  1.0
  H  H30  1  0.00252000  0.48302000  0.70439000  1.0
  H  H31  1  0.04049000  0.53966000  0.80370000  1.0
  H  H32  1  0.27391000  0.39904000  0.69559000  1.0
  H  H33  1  0.18683000  0.36630000  0.79235000  1.0
  H  H34  1  0.66158000  0.56887000  0.78150000  1.0
  H  H35  1  0.64867000  0.38977000  0.05477000  1.0
  H  H36  1  0.65059000  0.56861000  0.94491000  1.0
  H  H37  1  0.73209000  0.04064000  0.44979000  1.0
  H  H38  1  0.26931000  0.96153000  0.45083000  1.0
  H  H39  1  0.72742000  0.22124000  0.45397000  1.0
  C  C40  1  0.48671000  0.50089000  0.32943000  1.0
  C  C41  1  0.62614000  0.87983000  0.52510000  1.0
  C  C42  1  0.50204000  0.05307000  0.49962000  1.0
  C  C43  1  0.49932000  0.94766000  0.49926000  1.0
  C  C44  1  0.79619000  0.47252000  0.50052000  1.0
  C  C45  1  0.20140000  0.53020000  0.49928000  1.0
  C  C46  1  0.96366000  0.46262000  0.49951000  1.0
  C  C47  1  0.03398000  0.53973000  0.49945000  1.0
  C  C48  1  0.34393000  0.56799000  0.09707000  1.0
  C  C49  1  0.34213000  0.46251000  0.90380000  1.0
  C  C50  1  0.35025000  0.56779000  0.18950000  1.0
  C  C51  1  0.48276000  0.49967000  0.67070000  1.0
  C  C52  1  0.34902000  0.46168000  0.81135000  1.0
  C  C53  1  0.46716000  0.50355000  0.23195000  1.0
  C  C54  1  0.46593000  0.49981000  0.76854000  1.0
  C  C55  1  0.57305000  0.43929000  0.18352000  1.0
  C  C56  1  0.57311000  0.53894000  0.81628000  1.0
  C  C57  1  0.56571000  0.43928000  0.09283000  1.0
  C  C58  1  0.56665000  0.53894000  0.90711000  1.0
  C  C59  1  0.45185000  0.50298000  0.04897000  1.0
  C  C60  1  0.45175000  0.50150000  0.95146000  1.0
  C  C61  1  0.23001000  0.64241000  0.04886000  1.0
  C  C62  1  0.63168000  0.08946000  0.47307000  1.0
  C  C63  1  0.28768000  0.73938000  0.03702000  1.0
  C  C64  1  0.17588000  0.81639000  0.98832000  1.0
  C  C65  1  0.22367000  0.41714000  0.95220000  1.0
  C  C66  1  0.27414000  0.30716000  0.96761000  1.0
  C  C67  1  0.15418000  0.26110000  0.01590000  1.0
  C  C68  1  0.22569000  0.62917000  0.24210000  1.0
  C  C69  1  0.09378000  0.57423000  0.25983000  1.0
  C  C70  1  0.22654000  0.42713000  0.75857000  1.0
  C  C71  1  0.09110000  0.50936000  0.74195000  1.0
  C  C72  1  0.36971000  0.91204000  0.47324000  1.0
  C  C73  1  0.62994000  0.18918000  0.47427000  1.0
  C  C74  1  0.37139000  0.81231000  0.47396000  1.0
  C  C75  1  0.38262000  0.21875000  0.52653000  1.0
  C  C76  1  0.61878000  0.78120000  0.52444000  1.0
  C  C77  1  0.37523000  0.12012000  0.52667000  1.0
  N  N78  1  0.50767000  0.25240000  0.50068000  1.0
  N  N79  1  0.49360000  0.74828000  0.49929000  1.0
  O  O80  1  0.48928000  0.58124000  0.36792000  1.0
  O  O81  1  0.50819000  0.41738000  0.63301000  1.0
  O  O82  1  0.50341000  0.41745000  0.36633000  1.0
  O  O83  1  0.47366000  0.58242000  0.63329000  1.0
  O  O84  1  0.71912000  0.55803000  0.50598000  1.0
  O  O85  1  0.27890000  0.44466000  0.50373000  1.0
  O  O86  1  0.74321000  0.39348000  0.49611000  1.0
  O  O87  1  0.25380000  0.60957000  0.49500000  1.0
