# generated using pymatgen
data_CoH20C22Se2(N3O)2
_symmetry_space_group_name_H-M   'P 1'
_cell_length_a   7.31562000
_cell_length_b   8.91991000
_cell_length_c   10.09070000
_cell_angle_alpha   110.17900000
_cell_angle_beta   102.51100000
_cell_angle_gamma   98.38160000
_symmetry_Int_Tables_number   1
_chemical_formula_structural   CoH20C22Se2(N3O)2
_chemical_formula_sum   'Co1 H20 C22 Se2 N6 O2'
_cell_volume   585.64438277
_cell_formula_units_Z   1
loop_
 _symmetry_equiv_pos_site_id
 _symmetry_equiv_pos_as_xyz
  1  'x, y, z'
loop_
 _atom_site_type_symbol
 _atom_site_label
 _atom_site_symmetry_multiplicity
 _atom_site_fract_x
 _atom_site_fract_y
 _atom_site_fract_z
 _atom_site_occupancy
  Co  Co0  1  0.50001000  0.50000000  0.50000000  1.0
  H  H1  1  0.62293000  0.55763000  0.81127000  1.0
  H  H2  1  0.37707000  0.44237000  0.18873000  1.0
  H  H3  1  0.83833000  0.77302000  0.03961000  1.0
  H  H4  1  0.16166000  0.22698000  0.96039000  1.0
  H  H5  1  0.98574000  0.04220000  0.77603000  1.0
  H  H6  1  0.01427000  0.95780000  0.22398000  1.0
  H  H7  1  0.76162000  0.81450000  0.56014000  1.0
  H  H8  1  0.23839000  0.18550000  0.43986000  1.0
  H  H9  1  0.77160000  0.34601000  0.59369000  1.0
  H  H10  1  0.22840000  0.65398000  0.40631000  1.0
  H  H11  1  0.58582000  0.26727000  0.62264000  1.0
  H  H12  1  0.41418000  0.73273000  0.37736000  1.0
  H  H13  1  0.65192000  0.02576000  0.41627000  1.0
  H  H14  1  0.34808000  0.97424000  0.58374000  1.0
  H  H15  1  0.68379000  0.16618000  0.24999000  1.0
  H  H16  1  0.31621000  0.83382000  0.75001000  1.0
  H  H17  1  0.28983000  0.73120000  0.89503000  1.0
  H  H18  1  0.71017000  0.26880000  0.10497000  1.0
  H  H19  1  0.27181000  0.61175000  0.07676000  1.0
  H  H20  1  0.72818000  0.38825000  0.92324000  1.0
  C  C21  1  0.70746000  0.66666667  0.80862000  1.0
  C  C22  1  0.29254000  0.33327000  0.19137000  1.0
  C  C23  1  0.82993000  0.79037000  0.93692000  1.0
  C  C24  1  0.17007000  0.20962000  0.06308000  1.0
  C  C25  1  0.93580000  0.93237000  0.93259000  1.0
  C  C26  1  0.06420000  0.06762000  0.06742000  1.0
  C  C27  1  0.91033000  0.93807000  0.79217000  1.0
  C  C28  1  0.08967000  0.06193000  0.20783000  1.0
  C  C29  1  0.78379000  0.81027000  0.66866000  1.0
  C  C30  1  0.21622000  0.18973000  0.33135000  1.0
  C  C31  1  0.77711000  0.56075000  0.32942000  1.0
  C  C32  1  0.22289000  0.43926000  0.67057000  1.0
  C  C33  1  0.57612000  0.96234000  0.29910000  1.0
  C  C34  1  0.42389000  0.03765000  0.70090000  1.0
  C  C35  1  0.59390000  0.04147000  0.20367000  1.0
  C  C36  1  0.40609000  0.95853000  0.79633000  1.0
  C  C37  1  0.49279000  0.96117000  0.05332000  1.0
  C  C38  1  0.50721000  0.03883000  0.94669000  1.0
  C  C39  1  0.37523000  0.80302000  0.00873000  1.0
  C  C40  1  0.62476000  0.19698000  0.99128000  1.0
  C  C41  1  0.36485000  0.73419000  0.11179000  1.0
  C  C42  1  0.63515000  0.26581000  0.88821000  1.0
  Se  Se43  1  0.93396000  0.62003000  0.23316000  1.0
  Se  Se44  1  0.06604000  0.37997000  0.76682000  1.0
  N  N45  1  0.68160000  0.67491000  0.67490000  1.0
  N  N46  1  0.31840000  0.32509000  0.32510000  1.0
  N  N47  1  0.67168000  0.52243000  0.39211000  1.0
  N  N48  1  0.32833000  0.47758000  0.60788000  1.0
  N  N49  1  0.46386000  0.81098000  0.25517000  1.0
  N  N50  1  0.53614000  0.18902000  0.74483000  1.0
  O  O51  1  0.63050000  0.30743000  0.54946000  1.0
  O  O52  1  0.36950000  0.69257000  0.45054000  1.0
