# generated using pymatgen
data_ZnH20C26(NO2)2
_symmetry_space_group_name_H-M   'P 1'
_cell_length_a   8.38034000
_cell_length_b   14.12580000
_cell_length_c   21.74550000
_cell_angle_alpha   92.76060000
_cell_angle_beta   92.24220000
_cell_angle_gamma   100.92900000
_symmetry_Int_Tables_number   1
_chemical_formula_structural   ZnH20C26(NO2)2
_chemical_formula_sum   'Zn4 H80 C104 N8 O16'
_cell_volume   2521.53085214
_cell_formula_units_Z   4
loop_
 _symmetry_equiv_pos_site_id
 _symmetry_equiv_pos_as_xyz
  1  'x, y, z'
loop_
 _atom_site_type_symbol
 _atom_site_label
 _atom_site_symmetry_multiplicity
 _atom_site_fract_x
 _atom_site_fract_y
 _atom_site_fract_z
 _atom_site_occupancy
  Zn  Zn0  1  0.08245000  0.81285000  0.54303000  1.0
  Zn  Zn1  1  0.91755000  0.18715000  0.45697000  1.0
  Zn  Zn2  1  0.88112000  0.81613000  0.92746000  1.0
  Zn  Zn3  1  0.11887000  0.18386000  0.07254000  1.0
  H  H4  1  0.17066000  0.53342000  0.47110000  1.0
  H  H5  1  0.82935000  0.46659000  0.52890000  1.0
  H  H6  1  0.28513000  0.38330000  0.45732000  1.0
  H  H7  1  0.71487000  0.61671000  0.54268000  1.0
  H  H8  1  0.44414000  0.33079000  0.54424000  1.0
  H  H9  1  0.55585000  0.66921000  0.45576000  1.0
  H  H10  1  0.48751000  0.42680000  0.64424000  1.0
  H  H11  1  0.51247000  0.57320000  0.35577000  1.0
  H  H12  1  0.37200000  0.57777000  0.65700000  1.0
  H  H13  1  0.62798000  0.42223000  0.34301000  1.0
  H  H14  1  0.43895000  0.06717000  0.51741000  1.0
  H  H15  1  0.56106000  0.93283000  0.48259000  1.0
  H  H16  1  0.64369000  0.22243000  0.52734000  1.0
  H  H17  1  0.35630000  0.77757000  0.47266000  1.0
  H  H18  1  0.73198000  0.29976000  0.63051000  1.0
  H  H19  1  0.26802000  0.70024000  0.36949000  1.0
  H  H20  1  0.62158000  0.22255000  0.72454000  1.0
  H  H21  1  0.37842000  0.77746000  0.27545000  1.0
  H  H22  1  0.40523000  0.07231000  0.71358000  1.0
  H  H23  1  0.59477000  0.92770000  0.28642000  1.0
  H  H24  1  0.90736000  0.69233000  0.43684000  1.0
  H  H25  1  0.09264000  0.30767000  0.56316000  1.0
  H  H26  1  0.87134000  0.70032000  0.32408000  1.0
  H  H27  1  0.12866000  0.29968000  0.67592000  1.0
  H  H28  1  0.10615000  0.00149000  0.34559000  1.0
  H  H29  1  0.89383000  0.99851000  0.65441000  1.0
  H  H30  1  0.12932000  0.98064000  0.45908000  1.0
  H  H31  1  0.87067000  0.01936000  0.54092000  1.0
  H  H32  1  0.00768000  0.93607000  0.24318000  1.0
  H  H33  1  0.99232000  0.06393000  0.75683000  1.0
  H  H34  1  0.94570000  0.71340000  0.23017000  1.0
  H  H35  1  0.05431000  0.28660000  0.76983000  1.0
  H  H36  1  0.92342000  0.94625000  0.14938000  1.0
  H  H37  1  0.07659000  0.05375000  0.85062000  1.0
  H  H38  1  0.90006000  0.94791000  0.03558000  1.0
  H  H39  1  0.09995000  0.05209000  0.96442000  1.0
  H  H40  1  0.93919000  0.66086000  0.01279000  1.0
  H  H41  1  0.06083000  0.33914000  0.98721000  1.0
  H  H42  1  0.96203000  0.64542000  0.12724000  1.0
  H  H43  1  0.03799000  0.35458000  0.87276000  1.0
  H  H44  1  0.01583000  0.77083000  0.67022000  1.0
  H  H45  1  0.98417000  0.22917000  0.32979000  1.0
  H  H46  1  0.79211000  0.77565000  0.74231000  1.0
  H  H47  1  0.20789000  0.22436000  0.25769000  1.0
  H  H48  1  0.49851000  0.84007000  0.58714000  1.0
  H  H49  1  0.50150000  0.15992000  0.41286000  1.0
  H  H50  1  0.73521000  0.83295000  0.52207000  1.0
  H  H51  1  0.26479000  0.16704000  0.47793000  1.0
  H  H52  1  0.38211000  0.83353000  0.68541000  1.0
  H  H53  1  0.61790000  0.16649000  0.31459000  1.0
  H  H54  1  0.59633000  0.79020000  0.79587000  1.0
  H  H55  1  0.40367000  0.20980000  0.20413000  1.0
  H  H56  1  0.45328000  0.75799000  0.88842000  1.0
  H  H57  1  0.54672000  0.24202000  0.11158000  1.0
  H  H58  1  0.21017000  0.76726000  0.95040000  1.0
  H  H59  1  0.78982000  0.23273000  0.04960000  1.0
  H  H60  1  0.98949000  0.89222000  0.81042000  1.0
  H  H61  1  0.01050000  0.10778000  0.18958000  1.0
  H  H62  1  0.22017000  0.88753000  0.74159000  1.0
  H  H63  1  0.77983000  0.11248000  0.25841000  1.0
  H  H64  1  0.48000000  0.62090000  0.81911000  1.0
  H  H65  1  0.52001000  0.37910000  0.18088000  1.0
  H  H66  1  0.32193000  0.47759000  0.75816000  1.0
  H  H67  1  0.67808000  0.52241000  0.24183000  1.0
  H  H68  1  0.42550000  0.32335000  0.75274000  1.0
  H  H69  1  0.57450000  0.67664000  0.24725000  1.0
  H  H70  1  0.68569000  0.31287000  0.80961000  1.0
  H  H71  1  0.31431000  0.68711000  0.19038000  1.0
  H  H72  1  0.84212000  0.45826000  0.87057000  1.0
  H  H73  1  0.15787000  0.54173000  0.12942000  1.0
  H  H74  1  0.59559000  0.04952000  0.79500000  1.0
  H  H75  1  0.40441000  0.95047000  0.20501000  1.0
  H  H76  1  0.42754000  0.17849000  0.80573000  1.0
  H  H77  1  0.57245000  0.82150000  0.19428000  1.0
  H  H78  1  0.39149000  0.25040000  0.90948000  1.0
  H  H79  1  0.60851000  0.74959000  0.09053000  1.0
  H  H80  1  0.49892000  0.18404000  0.00302000  1.0
  H  H81  1  0.50108000  0.81596000  0.99699000  1.0
  H  H82  1  0.66096000  0.05323000  0.99167000  1.0
  H  H83  1  0.33904000  0.94677000  0.00834000  1.0
  C  C84  1  0.20247000  0.65615000  0.57260000  1.0
  C  C85  1  0.79753000  0.34385000  0.42739000  1.0
  C  C86  1  0.26517000  0.56407000  0.56479000  1.0
  C  C87  1  0.73483000  0.43593000  0.43521000  1.0
  C  C88  1  0.23990000  0.50909000  0.50863000  1.0
  C  C89  1  0.76010000  0.49091000  0.49137000  1.0
  C  C90  1  0.30368000  0.42524000  0.50129000  1.0
  C  C91  1  0.69631000  0.57477000  0.49872000  1.0
  C  C92  1  0.39308000  0.39589000  0.54995000  1.0
  C  C93  1  0.60691000  0.60411000  0.45005000  1.0
  C  C94  1  0.41742000  0.44987000  0.60635000  1.0
  C  C95  1  0.58256000  0.55013000  0.39366000  1.0
  C  C96  1  0.35356000  0.53374000  0.61378000  1.0
  C  C97  1  0.64643000  0.46627000  0.38623000  1.0
  C  C98  1  0.27861000  0.97235000  0.60987000  1.0
  C  C99  1  0.72137000  0.02765000  0.39013000  1.0
  C  C100  1  0.40743000  0.06232000  0.61494000  1.0
  C  C101  1  0.59257000  0.93768000  0.38506000  1.0
  C  C102  1  0.47597000  0.10365000  0.56240000  1.0
  C  C103  1  0.52403000  0.89635000  0.43760000  1.0
  C  C104  1  0.59081000  0.18943000  0.56800000  1.0
  C  C105  1  0.40919000  0.81056000  0.43200000  1.0
  C  C106  1  0.64151000  0.23296000  0.62635000  1.0
  C  C107  1  0.35849000  0.76705000  0.37365000  1.0
  C  C108  1  0.57788000  0.19024000  0.67903000  1.0
  C  C109  1  0.42213000  0.80977000  0.32097000  1.0
  C  C110  1  0.45939000  0.10611000  0.67334000  1.0
  C  C111  1  0.54060000  0.89390000  0.32666000  1.0
  C  C112  1  0.94832000  0.75967000  0.41478000  1.0
  C  C113  1  0.05168000  0.24033000  0.58522000  1.0
  C  C114  1  0.93132000  0.76472000  0.35150000  1.0
  C  C115  1  0.06868000  0.23528000  0.64850000  1.0
  C  C116  1  0.99058000  0.85196000  0.32423000  1.0
  C  C117  1  0.00941000  0.14804000  0.67577000  1.0
  C  C118  1  0.06041000  0.93174000  0.36402000  1.0
  C  C119  1  0.93958000  0.06826000  0.63598000  1.0
  C  C120  1  0.07195000  0.92116000  0.42704000  1.0
  C  C121  1  0.92804000  0.07884000  0.57296000  1.0
  C  C122  1  0.98368000  0.86204000  0.25792000  1.0
  C  C123  1  0.01631000  0.13796000  0.74208000  1.0
  C  C124  1  0.95806000  0.78717000  0.21524000  1.0
  C  C125  1  0.04194000  0.21283000  0.78476000  1.0
  C  C126  1  0.94875000  0.79556000  0.14887000  1.0
  C  C127  1  0.05127000  0.20444000  0.85113000  1.0
  C  C128  1  0.93106000  0.88139000  0.12158000  1.0
  C  C129  1  0.06895000  0.11860000  0.87842000  1.0
  C  C130  1  0.91834000  0.88332000  0.05805000  1.0
  C  C131  1  0.08167000  0.11667000  0.94195000  1.0
  C  C132  1  0.93877000  0.72184000  0.04552000  1.0
  C  C133  1  0.06125000  0.27816000  0.95448000  1.0
  C  C134  1  0.95152000  0.71458000  0.10887000  1.0
  C  C135  1  0.04850000  0.28542000  0.89113000  1.0
  C  C136  1  0.89896000  0.78647000  0.65472000  1.0
  C  C137  1  0.10104000  0.21354000  0.34528000  1.0
  C  C138  1  0.77357000  0.78917000  0.69392000  1.0
  C  C139  1  0.22644000  0.21085000  0.30608000  1.0
  C  C140  1  0.62517000  0.81026000  0.67118000  1.0
  C  C141  1  0.37485000  0.18976000  0.32882000  1.0
  C  C142  1  0.61128000  0.82509000  0.60766000  1.0
  C  C143  1  0.38873000  0.17491000  0.39234000  1.0
  C  C144  1  0.74226000  0.82128000  0.57126000  1.0
  C  C145  1  0.25775000  0.17872000  0.42874000  1.0
  C  C146  1  0.49023000  0.81854000  0.70960000  1.0
  C  C147  1  0.50978000  0.18148000  0.29041000  1.0
  C  C148  1  0.49133000  0.80825000  0.77113000  1.0
  C  C149  1  0.50867000  0.19176000  0.22887000  1.0
  C  C150  1  0.35544000  0.81875000  0.80875000  1.0
  C  C151  1  0.64456000  0.18125000  0.19125000  1.0
  C  C152  1  0.35219000  0.78787000  0.86941000  1.0
  C  C153  1  0.64781000  0.21214000  0.13059000  1.0
  C  C154  1  0.21843000  0.79345000  0.90408000  1.0
  C  C155  1  0.78156000  0.20655000  0.09592000  1.0
  C  C156  1  0.09557000  0.86283000  0.82492000  1.0
  C  C157  1  0.90442000  0.13717000  0.17508000  1.0
  C  C158  1  0.22347000  0.85879000  0.78722000  1.0
  C  C159  1  0.77653000  0.14122000  0.21278000  1.0
  C  C160  1  0.76941000  0.63296000  0.88500000  1.0
  C  C161  1  0.23059000  0.36703000  0.11500000  1.0
  C  C162  1  0.67089000  0.54774000  0.84822000  1.0
  C  C163  1  0.32910000  0.45224000  0.15178000  1.0
  C  C164  1  0.52409000  0.55318000  0.81671000  1.0
  C  C165  1  0.47591000  0.44681000  0.18329000  1.0
  C  C166  1  0.43585000  0.47256000  0.78268000  1.0
  C  C167  1  0.56414000  0.52743000  0.21732000  1.0
  C  C168  1  0.49411000  0.38616000  0.77969000  1.0
  C  C169  1  0.50589000  0.61382000  0.22030000  1.0
  C  C170  1  0.64072000  0.38046000  0.81101000  1.0
  C  C171  1  0.35928000  0.61953000  0.18898000  1.0
  C  C172  1  0.72826000  0.46074000  0.84523000  1.0
  C  C173  1  0.27173000  0.53925000  0.15476000  1.0
  C  C174  1  0.74006000  0.96849000  0.88479000  1.0
  C  C175  1  0.25995000  0.03152000  0.11521000  1.0
  C  C176  1  0.64031000  0.04546000  0.89259000  1.0
  C  C177  1  0.35971000  0.95455000  0.10741000  1.0
  C  C178  1  0.57385000  0.08045000  0.84012000  1.0
  C  C179  1  0.42616000  0.91956000  0.15988000  1.0
  C  C180  1  0.48250000  0.15277000  0.84640000  1.0
  C  C181  1  0.51751000  0.84724000  0.15360000  1.0
  C  C182  1  0.45981000  0.19223000  0.90488000  1.0
  C  C183  1  0.54020000  0.80777000  0.09512000  1.0
  C  C184  1  0.52294000  0.15635000  0.95734000  1.0
  C  C185  1  0.47707000  0.84365000  0.04266000  1.0
  C  C186  1  0.61237000  0.08285000  0.95122000  1.0
  C  C187  1  0.38764000  0.91715000  0.04878000  1.0
  N  N188  1  0.01735000  0.83653000  0.45239000  1.0
  N  N189  1  0.98265000  0.16347000  0.54761000  1.0
  N  N190  1  0.92198000  0.80510000  0.02024000  1.0
  N  N191  1  0.07803000  0.19489000  0.97976000  1.0
  N  N192  1  0.88490000  0.80348000  0.59421000  1.0
  N  N193  1  0.11511000  0.19653000  0.40580000  1.0
  N  N194  1  0.09120000  0.83001000  0.88243000  1.0
  N  N195  1  0.90880000  0.16999000  0.11757000  1.0
  O  O196  1  0.14531000  0.68745000  0.52240000  1.0
  O  O197  1  0.85468000  0.31255000  0.47759000  1.0
  O  O198  1  0.20845000  0.70010000  0.62433000  1.0
  O  O199  1  0.79155000  0.29991000  0.37566000  1.0
  O  O200  1  0.25531000  0.92821000  0.55526000  1.0
  O  O201  1  0.74468000  0.07179000  0.44474000  1.0
  O  O202  1  0.20213000  0.94471000  0.65593000  1.0
  O  O203  1  0.79784000  0.05530000  0.34407000  1.0
  O  O204  1  0.71468000  0.71353000  0.88384000  1.0
  O  O205  1  0.28532000  0.28646000  0.11615000  1.0
  O  O206  1  0.89761000  0.62510000  0.91421000  1.0
  O  O207  1  0.10238000  0.37489000  0.08579000  1.0
  O  O208  1  0.78054000  0.93158000  0.93543000  1.0
  O  O209  1  0.21946000  0.06841000  0.06457000  1.0
  O  O210  1  0.77952000  0.94444000  0.83214000  1.0
  O  O211  1  0.22048000  0.05557000  0.16785000  1.0
