# generated using pymatgen
data_AlH15(C3O2)9
_symmetry_space_group_name_H-M   'P 1'
_cell_length_a   4.09303000
_cell_length_b   15.76430000
_cell_length_c   15.92720000
_cell_angle_alpha   61.72700000
_cell_angle_beta   87.68620000
_cell_angle_gamma   89.48020000
_symmetry_Int_Tables_number   1
_chemical_formula_structural   AlH15(C3O2)9
_chemical_formula_sum   'Al1 H15 C27 O18'
_cell_volume   904.28394447
_cell_formula_units_Z   1
loop_
 _symmetry_equiv_pos_site_id
 _symmetry_equiv_pos_as_xyz
  1  'x, y, z'
loop_
 _atom_site_type_symbol
 _atom_site_label
 _atom_site_symmetry_multiplicity
 _atom_site_fract_x
 _atom_site_fract_y
 _atom_site_fract_z
 _atom_site_occupancy
  Al  Al0  1  0.99300000  0.50150000  0.49742000  1.0
  H  H1  1  0.51594000  0.93144000  0.92680000  1.0
  H  H2  1  0.36924000  0.91911000  0.66659000  1.0
  H  H3  1  0.62754000  0.66358000  0.91916000  1.0
  H  H4  1  0.02278000  0.50666000  0.28308000  1.0
  H  H5  1  0.01592000  0.69598000  0.29586000  1.0
  H  H6  1  0.07615000  0.55367000  0.09104000  1.0
  H  H7  1  0.94526000  0.86489000  0.98849000  1.0
  H  H8  1  0.95363000  0.29756000  0.69658000  1.0
  H  H9  1  0.08627000  0.99351000  0.86890000  1.0
  H  H10  1  0.99201000  0.28477000  0.50544000  1.0
  H  H11  1  0.80026000  0.97539000  0.64205000  1.0
  H  H12  1  0.94860000  0.86233000  0.54794000  1.0
  H  H13  1  0.85478000  0.71016000  0.48313000  1.0
  H  H14  1  0.19118000  0.63589000  0.89065000  1.0
  H  H15  1  0.12041000  0.48859000  0.70585000  1.0
  C  C16  1  0.48411000  0.35288000  0.56936000  1.0
  C  C17  1  0.48292000  0.57816000  0.57166000  1.0
  C  C18  1  0.51341000  0.57320000  0.34829000  1.0
  C  C19  1  0.46866000  0.93952000  0.78788000  1.0
  C  C20  1  0.51033000  0.89036000  0.88759000  1.0
  C  C21  1  0.54408000  0.78930000  0.93692000  1.0
  C  C22  1  0.56299000  0.73938000  0.88361000  1.0
  C  C23  1  0.50095000  0.78517000  0.78640000  1.0
  C  C24  1  0.44013000  0.88433000  0.74056000  1.0
  C  C25  1  0.71888000  0.71238000  0.19695000  1.0
  C  C26  1  0.72404000  0.76518000  0.09697000  1.0
  C  C27  1  0.54863000  0.73341000  0.04223000  1.0
  C  C28  1  0.36766000  0.64642000  0.09042000  1.0
  C  C29  1  0.35168000  0.59498000  0.19009000  1.0
  C  C30  1  0.52881000  0.62777000  0.24249000  1.0
  C  C31  1  0.28354000  0.10244000  0.76344000  1.0
  C  C32  1  0.28385000  0.20297000  0.71000000  1.0
  C  C33  1  0.47666000  0.24623000  0.62518000  1.0
  C  C34  1  0.66330000  0.19289000  0.59157000  1.0
  C  C35  1  0.65247000  0.09187000  0.64388000  1.0
  C  C36  1  0.46558000  0.04592000  0.73132000  1.0
  C  C37  1  0.67076000  0.76584000  0.64440000  1.0
  C  C38  1  0.67501000  0.71520000  0.59296000  1.0
  C  C39  1  0.48547000  0.62908000  0.62642000  1.0
  C  C40  1  0.30160000  0.59408000  0.71480000  1.0
  C  C41  1  0.31860000  0.64310000  0.76890000  1.0
  C  C42  1  0.49680000  0.73025000  0.73292000  1.0
  O  O43  1  0.26736000  0.58872000  0.39121000  1.0
  O  O44  1  0.25765000  0.39451000  0.51092000  1.0
  O  O45  1  0.24907000  0.51666000  0.58686000  1.0
  O  O46  1  0.74520000  0.51517000  0.38934000  1.0
  O  O47  1  0.71717000  0.59466000  0.50740000  1.0
  O  O48  1  0.71873000  0.39716000  0.58363000  1.0
  O  O49  1  0.16855000  0.51063000  0.23068000  1.0
  O  O50  1  0.88847000  0.74737000  0.24672000  1.0
  O  O51  1  0.19113000  0.61137000  0.04178000  1.0
  O  O52  1  0.91627000  0.84606000  0.05624000  1.0
  O  O53  1  0.11076000  0.25678000  0.74357000  1.0
  O  O54  1  0.09085000  0.06296000  0.84528000  1.0
  O  O55  1  0.84114000  0.23644000  0.50623000  1.0
  O  O56  1  0.84164000  0.04498000  0.60710000  1.0
  O  O57  1  0.84611000  0.85075000  0.60913000  1.0
  O  O58  1  0.85376000  0.75636000  0.50865000  1.0
  O  O59  1  0.14240000  0.60310000  0.85346000  1.0
  O  O60  1  0.11927000  0.51258000  0.75286000  1.0
