# generated using pymatgen
data_AgH4C4N3O2
_symmetry_space_group_name_H-M   'P 1'
_cell_length_a   6.39986000
_cell_length_b   7.26606000
_cell_length_c   12.77280000
_cell_angle_alpha   89.99720000
_cell_angle_beta   90.00150000
_cell_angle_gamma   89.99970000
_symmetry_Int_Tables_number   1
_chemical_formula_structural   AgH4C4N3O2
_chemical_formula_sum   'Ag4 H16 C16 N12 O8'
_cell_volume   593.95776544
_cell_formula_units_Z   4
loop_
 _symmetry_equiv_pos_site_id
 _symmetry_equiv_pos_as_xyz
  1  'x, y, z'
loop_
 _atom_site_type_symbol
 _atom_site_label
 _atom_site_symmetry_multiplicity
 _atom_site_fract_x
 _atom_site_fract_y
 _atom_site_fract_z
 _atom_site_occupancy
  Ag  Ag0  1  0.09879000  0.14331000  0.16873000  1.0
  Ag  Ag1  1  0.90121000  0.85671000  0.66875000  1.0
  Ag  Ag2  1  0.90122000  0.64330000  0.16875000  1.0
  Ag  Ag3  1  0.09879000  0.35671000  0.66872000  1.0
  H  H4  1  0.58703000  0.05651000  0.24577000  1.0
  H  H5  1  0.41297000  0.94352000  0.74577000  1.0
  H  H6  1  0.41297000  0.55650000  0.24579000  1.0
  H  H7  1  0.58703000  0.44351000  0.74576000  1.0
  H  H8  1  0.40405000  0.30639000  0.96163000  1.0
  H  H9  1  0.59593000  0.69360000  0.46164000  1.0
  H  H10  1  0.59595000  0.80638000  0.96163000  1.0
  H  H11  1  0.40404000  0.19362000  0.46163000  1.0
  H  H12  1  0.00270000  0.27516000  0.97306000  1.0
  H  H13  1  0.99726000  0.72486000  0.47306000  1.0
  H  H14  1  0.99726000  0.77511000  0.97306000  1.0
  H  H15  1  0.00273000  0.22480000  0.47308000  1.0
  H  H16  1  0.80851000  0.39367000  0.90056000  1.0
  H  H17  1  0.19146000  0.60632000  0.40057000  1.0
  H  H18  1  0.19144000  0.89366000  0.90056000  1.0
  H  H19  1  0.80851000  0.10631000  0.40056000  1.0
  C  C20  1  0.59286000  0.12016000  0.16909000  1.0
  C  C21  1  0.40710000  0.87985000  0.66909000  1.0
  C  C22  1  0.40710000  0.62015000  0.16909000  1.0
  C  C23  1  0.59289000  0.37983000  0.66909000  1.0
  C  C24  1  0.49280000  0.24365000  0.02520000  1.0
  C  C25  1  0.50724000  0.75638000  0.52521000  1.0
  C  C26  1  0.50724000  0.74363000  0.02521000  1.0
  C  C27  1  0.49279000  0.25638000  0.52520000  1.0
  C  C28  1  0.84556000  0.26283000  0.93947000  1.0
  C  C29  1  0.15443000  0.73717000  0.43947000  1.0
  C  C30  1  0.15442000  0.76282000  0.93947000  1.0
  C  C31  1  0.84556000  0.23714000  0.43947000  1.0
  C  C32  1  0.84000000  0.10645000  0.85737000  1.0
  C  C33  1  0.16003000  0.89356000  0.35737000  1.0
  C  C34  1  0.16002000  0.60643000  0.85736000  1.0
  C  C35  1  0.84002000  0.39356000  0.35738000  1.0
  N  N36  1  0.70180000  0.23137000  0.02498000  1.0
  N  N37  1  0.29822000  0.76863000  0.52498000  1.0
  N  N38  1  0.29820000  0.73136000  0.02497000  1.0
  N  N39  1  0.70179000  0.26861000  0.52497000  1.0
  N  N40  1  0.76775000  0.15067000  0.11585000  1.0
  N  N41  1  0.23222000  0.84933000  0.61583000  1.0
  N  N42  1  0.23222000  0.65066000  0.11583000  1.0
  N  N43  1  0.76777000  0.34930000  0.61584000  1.0
  N  N44  1  0.41955000  0.17544000  0.11578000  1.0
  N  N45  1  0.58044000  0.82456000  0.61580000  1.0
  N  N46  1  0.58044000  0.67543000  0.11580000  1.0
  N  N47  1  0.41955000  0.32458000  0.61579000  1.0
  O  O48  1  0.99894000  0.10012000  0.79737000  1.0
  O  O49  1  0.00109000  0.89992000  0.29735000  1.0
  O  O50  1  0.00109000  0.60012000  0.79735000  1.0
  O  O51  1  0.99895000  0.39992000  0.29737000  1.0
  O  O52  1  0.68358000  0.00209000  0.85519000  1.0
  O  O53  1  0.31646000  0.99791000  0.35518000  1.0
  O  O54  1  0.31643000  0.50207000  0.85519000  1.0
  O  O55  1  0.68359000  0.49792000  0.35519000  1.0
