# generated using pymatgen
data_AlH6C21N3(ClO)6
_symmetry_space_group_name_H-M   'P 1'
_cell_length_a   3.99694000
_cell_length_b   27.91750000
_cell_length_c   27.91644009
_cell_angle_alpha   119.99376730
_cell_angle_beta   89.99169818
_cell_angle_gamma   89.98830000
_symmetry_Int_Tables_number   1
_chemical_formula_structural   AlH6C21N3(ClO)6
_chemical_formula_sum   'Al2 H12 C42 N6 Cl12 O12'
_cell_volume   2697.87651252
_cell_formula_units_Z   2
loop_
 _symmetry_equiv_pos_site_id
 _symmetry_equiv_pos_as_xyz
  1  'x, y, z'
loop_
 _atom_site_type_symbol
 _atom_site_label
 _atom_site_symmetry_multiplicity
 _atom_site_fract_x
 _atom_site_fract_y
 _atom_site_fract_z
 _atom_site_occupancy
  Al  Al0  1  0.99864000  0.00001000  0.50002000  1.0
  Al  Al1  1  0.99378000  0.33333000  0.16665000  1.0
  H  H2  1  0.60468000  0.48826000  0.30665000  1.0
  H  H3  1  0.57941000  0.59222000  0.35620000  1.0
  H  H4  1  0.67980000  0.74796000  0.46043000  1.0
  H  H5  1  0.35238000  0.73852000  0.30891000  1.0
  H  H6  1  0.60535000  0.19333000  0.18162000  1.0
  H  H7  1  0.58016000  0.14380000  0.23604000  1.0
  H  H8  1  0.67976000  0.03957000  0.28755000  1.0
  H  H9  1  0.35223000  0.19112000  0.42961000  1.0
  H  H10  1  0.60537000  0.31835000  0.01168000  1.0
  H  H11  1  0.58003000  0.26392000  0.90772000  1.0
  H  H12  1  0.67968000  0.21245000  0.75203000  1.0
  H  H13  1  0.35249000  0.07038000  0.76151000  1.0
  C  C14  1  0.49841000  0.04758000  0.58460000  1.0
  C  C15  1  0.49851000  0.91542000  0.46300000  1.0
  C  C16  1  0.49833000  0.03703000  0.45244000  1.0
  C  C17  1  0.49629000  0.41761000  0.20111000  1.0
  C  C18  1  0.49649000  0.29887000  0.21648000  1.0
  C  C19  1  0.49649000  0.28350000  0.08237000  1.0
  C  C20  1  0.50176000  0.47909000  0.22689000  1.0
  C  C21  1  0.55767000  0.51024000  0.28421000  1.0
  C  C22  1  0.54551000  0.56732000  0.31161000  1.0
  C  C23  1  0.48741000  0.59522000  0.28220000  1.0
  C  C24  1  0.44113000  0.56446000  0.22420000  1.0
  C  C25  1  0.44531000  0.50619000  0.19663000  1.0
  C  C26  1  0.60453000  0.76885000  0.43805000  1.0
  C  C27  1  0.51921000  0.73761000  0.38199000  1.0
  C  C28  1  0.41969000  0.76360000  0.35232000  1.0
  C  C29  1  0.41044000  0.82085000  0.37915000  1.0
  C  C30  1  0.49997000  0.85339000  0.43533000  1.0
  C  C31  1  0.59473000  0.82642000  0.46423000  1.0
  C  C32  1  0.50208000  0.27311000  0.25220000  1.0
  C  C33  1  0.55817000  0.21577000  0.22602000  1.0
  C  C34  1  0.54599000  0.18837000  0.25571000  1.0
  C  C35  1  0.48760000  0.21780000  0.31301000  1.0
  C  C36  1  0.44114000  0.27580000  0.34025000  1.0
  C  C37  1  0.44541000  0.30337000  0.30954000  1.0
  C  C38  1  0.60443000  0.06196000  0.33082000  1.0
  C  C39  1  0.51917000  0.11802000  0.35563000  1.0
  C  C40  1  0.41959000  0.14771000  0.41129000  1.0
  C  C41  1  0.41030000  0.12087000  0.44171000  1.0
  C  C42  1  0.49982000  0.06469000  0.41808000  1.0
  C  C43  1  0.59458000  0.03578000  0.36221000  1.0
  C  C44  1  0.50201000  0.24779000  0.02089000  1.0
  C  C45  1  0.55813000  0.27395000  0.98972000  1.0
  C  C46  1  0.54595000  0.24425000  0.93264000  1.0
  C  C47  1  0.48760000  0.18697000  0.90478000  1.0
  C  C48  1  0.44113000  0.15973000  0.93554000  1.0
  C  C49  1  0.44535000  0.19045000  0.99382000  1.0
  C  C50  1  0.60445000  0.16919000  0.73114000  1.0
  C  C51  1  0.51922000  0.14436000  0.76239000  1.0
  C  C52  1  0.41976000  0.08872000  0.73642000  1.0
  C  C53  1  0.41040000  0.05829000  0.67917000  1.0
  C  C54  1  0.49989000  0.08193000  0.64662000  1.0
  C  C55  1  0.59457000  0.13779000  0.67357000  1.0
  N  N56  1  0.46852000  0.65308000  0.30718000  1.0
  N  N57  1  0.54337000  0.67954000  0.35812000  1.0
  N  N58  1  0.46864000  0.19283000  0.34591000  1.0
  N  N59  1  0.54345000  0.14189000  0.32143000  1.0
  N  N60  1  0.46862000  0.15408000  0.84691000  1.0
  N  N61  1  0.54347000  0.17855000  0.82045000  1.0
  Cl  Cl62  1  0.39569000  0.46940000  0.12608000  1.0
  Cl  Cl63  1  0.38273000  0.59798000  0.18760000  1.0
  Cl  Cl64  1  0.70836000  0.86490000  0.53294000  1.0
  Cl  Cl65  1  0.28128000  0.85295000  0.34309000  1.0
  Cl  Cl66  1  0.39539000  0.37392000  0.34329000  1.0
  Cl  Cl67  1  0.38248000  0.31242000  0.41036000  1.0
  Cl  Cl68  1  0.70815000  0.96705000  0.33198000  1.0
  Cl  Cl69  1  0.28101000  0.15696000  0.50986000  1.0
  Cl  Cl70  1  0.39550000  0.15669000  0.03061000  1.0
  Cl  Cl71  1  0.38256000  0.08963000  0.90205000  1.0
  Cl  Cl72  1  0.70801000  0.16804000  0.63508000  1.0
  Cl  Cl73  1  0.28114000  0.99015000  0.64710000  1.0
  O  O74  1  0.26131000  0.00370000  0.44468000  1.0
  O  O75  1  0.26132000  0.05533000  0.55903000  1.0
  O  O76  1  0.26145000  0.94100000  0.49634000  1.0
  O  O77  1  0.73558000  0.04939000  0.48685000  1.0
  O  O78  1  0.73584000  0.93747000  0.45064000  1.0
  O  O79  1  0.73577000  0.01317000  0.56256000  1.0
  O  O80  1  0.25711000  0.27721000  0.10868000  1.0
  O  O81  1  0.25695000  0.39131000  0.16850000  1.0
  O  O82  1  0.25705000  0.33147000  0.22277000  1.0
  O  O83  1  0.72882000  0.31940000  0.10393000  1.0
  O  O84  1  0.72898000  0.28453000  0.18057000  1.0
  O  O85  1  0.72875000  0.39603000  0.21544000  1.0
