# generated using pymatgen
data_ZnH9C12N6ClO
_symmetry_space_group_name_H-M   'P 1'
_cell_length_a   8.19311000
_cell_length_b   9.50184000
_cell_length_c   17.47060000
_cell_angle_alpha   90.00040000
_cell_angle_beta   89.99980000
_cell_angle_gamma   89.99990000
_symmetry_Int_Tables_number   1
_chemical_formula_structural   ZnH9C12N6ClO
_chemical_formula_sum   'Zn4 H36 C48 N24 Cl4 O4'
_cell_volume   1360.07957676
_cell_formula_units_Z   4
loop_
 _symmetry_equiv_pos_site_id
 _symmetry_equiv_pos_as_xyz
  1  'x, y, z'
loop_
 _atom_site_type_symbol
 _atom_site_label
 _atom_site_symmetry_multiplicity
 _atom_site_fract_x
 _atom_site_fract_y
 _atom_site_fract_z
 _atom_site_occupancy
  Zn  Zn0  1  0.94704000  0.50949000  0.02597000  1.0
  Zn  Zn1  1  0.05296000  0.49051000  0.52597000  1.0
  Zn  Zn2  1  0.55296000  0.00949000  0.52597000  1.0
  Zn  Zn3  1  0.44704000  0.99051000  0.02597000  1.0
  H  H4  1  0.44278000  0.34412000  0.14461000  1.0
  H  H5  1  0.55722000  0.65587000  0.64462000  1.0
  H  H6  1  0.05722000  0.84413000  0.64461000  1.0
  H  H7  1  0.94279000  0.15587000  0.14461000  1.0
  H  H8  1  0.58932000  0.06329000  0.36052000  1.0
  H  H9  1  0.41067000  0.93672000  0.86051000  1.0
  H  H10  1  0.91069000  0.56328000  0.86051000  1.0
  H  H11  1  0.08931000  0.43672000  0.36051000  1.0
  H  H12  1  0.43241000  0.56611000  0.37899000  1.0
  H  H13  1  0.56759000  0.43389000  0.87899000  1.0
  H  H14  1  0.06759000  0.06611000  0.87899000  1.0
  H  H15  1  0.93241000  0.93389000  0.37899000  1.0
  H  H16  1  0.54305000  0.93292000  0.23955000  1.0
  H  H17  1  0.45695000  0.06709000  0.73955000  1.0
  H  H18  1  0.95696000  0.43291000  0.73955000  1.0
  H  H19  1  0.04304000  0.56709000  0.23955000  1.0
  H  H20  1  0.48938000  0.71006000  0.49198000  1.0
  H  H21  1  0.51062000  0.28994000  0.99198000  1.0
  H  H22  1  0.01062000  0.21005000  0.99198000  1.0
  H  H23  1  0.98938000  0.78994000  0.49198000  1.0
  H  H24  1  0.33259000  0.84004000  0.17552000  1.0
  H  H25  1  0.66741000  0.15996000  0.67552000  1.0
  H  H26  1  0.16741000  0.34004000  0.67551000  1.0
  H  H27  1  0.83258000  0.65996000  0.17552000  1.0
  H  H28  1  0.64606000  0.34552000  0.23523000  1.0
  H  H29  1  0.35394000  0.65448000  0.73523000  1.0
  H  H30  1  0.85394000  0.84551000  0.73523000  1.0
  H  H31  1  0.14606000  0.15448000  0.23523000  1.0
  H  H32  1  0.49957000  0.36525000  0.30974000  1.0
  H  H33  1  0.50043000  0.63475000  0.80974000  1.0
  H  H34  1  0.00044000  0.86525000  0.80974000  1.0
  H  H35  1  0.99956000  0.13475000  0.30974000  1.0
  H  H36  1  0.66343000  0.48552000  0.30255000  1.0
  H  H37  1  0.33657000  0.51448000  0.80255000  1.0
  H  H38  1  0.83658000  0.98552000  0.80255000  1.0
  H  H39  1  0.16342000  0.01448000  0.30255000  1.0
  C  C40  1  0.47850000  0.51395000  0.21654000  1.0
  C  C41  1  0.52150000  0.48604000  0.71654000  1.0
  C  C42  1  0.02151000  0.01395000  0.71654000  1.0
  C  C43  1  0.97850000  0.98605000  0.21654000  1.0
  C  C44  1  0.44432000  0.65683000  0.22722000  1.0
  C  C45  1  0.55568000  0.34317000  0.72722000  1.0
  C  C46  1  0.05569000  0.15683000  0.72722000  1.0
  C  C47  1  0.94431000  0.84317000  0.22722000  1.0
  C  C48  1  0.55671000  0.95200000  0.36121000  1.0
  C  C49  1  0.44328000  0.04800000  0.86121000  1.0
  C  C50  1  0.94330000  0.45200000  0.86121000  1.0
  C  C51  1  0.05670000  0.54800000  0.36120000  1.0
  C  C52  1  0.47179000  0.67423000  0.37023000  1.0
  C  C53  1  0.52821000  0.32577000  0.87023000  1.0
  C  C54  1  0.02822000  0.17423000  0.87023000  1.0
  C  C55  1  0.97179000  0.82577000  0.37023000  1.0
  C  C56  1  0.53055000  0.87801000  0.29404000  1.0
  C  C57  1  0.46945000  0.12199000  0.79404000  1.0
  C  C58  1  0.96946000  0.37801000  0.79404000  1.0
  C  C59  1  0.03054000  0.62199000  0.29403000  1.0
  C  C60  1  0.32772000  0.51112000  0.09385000  1.0
  C  C61  1  0.67228000  0.48887000  0.59385000  1.0
  C  C62  1  0.17227000  0.01113000  0.59385000  1.0
  C  C63  1  0.82773000  0.98887000  0.09385000  1.0
  C  C64  1  0.50044000  0.75499000  0.43494000  1.0
  C  C65  1  0.49956000  0.24501000  0.93494000  1.0
  C  C66  1  0.99957000  0.25498000  0.93494000  1.0
  C  C67  1  0.00044000  0.74501000  0.43494000  1.0
  C  C68  1  0.30069000  0.66125000  0.10376000  1.0
  C  C69  1  0.69931000  0.33874000  0.60376000  1.0
  C  C70  1  0.19931000  0.16125000  0.60376000  1.0
  C  C71  1  0.80069000  0.83875000  0.10376000  1.0
  C  C72  1  0.35827000  0.72799000  0.16833000  1.0
  C  C73  1  0.64173000  0.27201000  0.66833000  1.0
  C  C74  1  0.14173000  0.22799000  0.66833000  1.0
  C  C75  1  0.85827000  0.77201000  0.16833000  1.0
  C  C76  1  0.21168000  0.73578000  0.04423000  1.0
  C  C77  1  0.78832000  0.26422000  0.54422000  1.0
  C  C78  1  0.28832000  0.23578000  0.54422000  1.0
  C  C79  1  0.71168000  0.76423000  0.04422000  1.0
  C  C80  1  0.48570000  0.73495000  0.29732000  1.0
  C  C81  1  0.51429000  0.26505000  0.79732000  1.0
  C  C82  1  0.01430000  0.23495000  0.79732000  1.0
  C  C83  1  0.98570000  0.76505000  0.29732000  1.0
  C  C84  1  0.57718000  0.42284000  0.26889000  1.0
  C  C85  1  0.42282000  0.57716000  0.76889000  1.0
  C  C86  1  0.92283000  0.92284000  0.76889000  1.0
  C  C87  1  0.07718000  0.07716000  0.26889000  1.0
  N  N88  1  0.13273000  0.88860000  0.96010000  1.0
  N  N89  1  0.86727000  0.11140000  0.46010000  1.0
  N  N90  1  0.36726000  0.38860000  0.46010000  1.0
  N  N91  1  0.63273000  0.61140000  0.96010000  1.0
  N  N92  1  0.04061000  0.77751000  0.95221000  1.0
  N  N93  1  0.95939000  0.22249000  0.45221000  1.0
  N  N94  1  0.45939000  0.27751000  0.45221000  1.0
  N  N95  1  0.54061000  0.72249000  0.95221000  1.0
  N  N96  1  0.08770000  0.68010000  0.00420000  1.0
  N  N97  1  0.91230000  0.31990000  0.50420000  1.0
  N  N98  1  0.41230000  0.18010000  0.50420000  1.0
  N  N99  1  0.58770000  0.81990000  0.00420000  1.0
  N  N100  1  0.24007000  0.86688000  0.01771000  1.0
  N  N101  1  0.75993000  0.13312000  0.51771000  1.0
  N  N102  1  0.25993000  0.36687000  0.51771000  1.0
  N  N103  1  0.74007000  0.63312000  0.01771000  1.0
  N  N104  1  0.54189000  0.89179000  0.43091000  1.0
  N  N105  1  0.45811000  0.10821000  0.93091000  1.0
  N  N106  1  0.95813000  0.39179000  0.93091000  1.0
  N  N107  1  0.04188000  0.60821000  0.43091000  1.0
  N  N108  1  0.42200000  0.45059000  0.15208000  1.0
  N  N109  1  0.57800000  0.54941000  0.65208000  1.0
  N  N110  1  0.07801000  0.95059000  0.65207000  1.0
  N  N111  1  0.92200000  0.04941000  0.15207000  1.0
  Cl  Cl112  1  0.93689000  0.39356000  0.13761000  1.0
  Cl  Cl113  1  0.06311000  0.60644000  0.63761000  1.0
  Cl  Cl114  1  0.56309000  0.89357000  0.63761000  1.0
  Cl  Cl115  1  0.43690000  0.10644000  0.13761000  1.0
  O  O116  1  0.27753000  0.43664000  0.04031000  1.0
  O  O117  1  0.72248000  0.56336000  0.54031000  1.0
  O  O118  1  0.22248000  0.93664000  0.54030000  1.0
  O  O119  1  0.77753000  0.06336000  0.04030000  1.0
