# generated using pymatgen
data_ZnPH5C5NClO3
_symmetry_space_group_name_H-M   'P 1'
_cell_length_a   9.58272000
_cell_length_b   9.58272000
_cell_length_c   10.23200000
_cell_angle_alpha   82.55920000
_cell_angle_beta   82.55960000
_cell_angle_gamma   75.04020000
_symmetry_Int_Tables_number   1
_chemical_formula_structural   ZnPH5C5NClO3
_chemical_formula_sum   'Zn4 P4 H20 C20 N4 Cl4 O12'
_cell_volume   895.56303249
_cell_formula_units_Z   4
loop_
 _symmetry_equiv_pos_site_id
 _symmetry_equiv_pos_as_xyz
  1  'x, y, z'
loop_
 _atom_site_type_symbol
 _atom_site_label
 _atom_site_symmetry_multiplicity
 _atom_site_fract_x
 _atom_site_fract_y
 _atom_site_fract_z
 _atom_site_occupancy
  Zn  Zn0  1  0.93097000  0.21654000  0.06732000  1.0
  Zn  Zn1  1  0.78346000  0.06903000  0.43268000  1.0
  Zn  Zn2  1  0.06903000  0.78346000  0.93268000  1.0
  Zn  Zn3  1  0.21654000  0.93097000  0.56732000  1.0
  P  P4  1  0.83459000  0.91711000  0.16751000  1.0
  P  P5  1  0.08289000  0.16542000  0.33249000  1.0
  P  P6  1  0.16542000  0.08289000  0.83249000  1.0
  P  P7  1  0.91711000  0.83458000  0.66751000  1.0
  H  H8  1  0.32309000  0.95792000  0.27982000  1.0
  H  H9  1  0.04208000  0.67691000  0.22018000  1.0
  H  H10  1  0.67691000  0.04208000  0.72018000  1.0
  H  H11  1  0.95792000  0.32309000  0.77981000  1.0
  H  H12  1  0.54320000  0.99545000  0.31089000  1.0
  H  H13  1  0.00455000  0.45680000  0.18911000  1.0
  H  H14  1  0.45680000  0.00455000  0.68911000  1.0
  H  H15  1  0.99545000  0.54320000  0.81088000  1.0
  H  H16  1  0.74266000  0.74948000  0.97945000  1.0
  H  H17  1  0.25052000  0.25734000  0.52056000  1.0
  H  H18  1  0.25734000  0.25052000  0.02055000  1.0
  H  H19  1  0.74948000  0.74266000  0.47944000  1.0
  H  H20  1  0.49713000  0.70931000  0.95759000  1.0
  H  H21  1  0.29069000  0.50287000  0.54241000  1.0
  H  H22  1  0.50287000  0.29068000  0.04241000  1.0
  H  H23  1  0.70932000  0.49713000  0.45758000  1.0
  H  H24  1  0.28476000  0.82458000  0.11237000  1.0
  H  H25  1  0.17542000  0.71524000  0.38763000  1.0
  H  H26  1  0.71524000  0.17542000  0.88763000  1.0
  H  H27  1  0.82458000  0.28476000  0.61236000  1.0
  C  C28  1  0.54248000  0.93042000  0.23100000  1.0
  C  C29  1  0.06958000  0.45752000  0.26900000  1.0
  C  C30  1  0.45752000  0.06958000  0.76900000  1.0
  C  C31  1  0.93042000  0.54248000  0.73100000  1.0
  C  C32  1  0.66477000  0.87426000  0.14697000  1.0
  C  C33  1  0.12574000  0.33522000  0.35303000  1.0
  C  C34  1  0.33523000  0.12574000  0.85303000  1.0
  C  C35  1  0.87426000  0.66478000  0.64697000  1.0
  C  C36  1  0.64877000  0.79358000  0.04713000  1.0
  C  C37  1  0.20643000  0.35122000  0.45287000  1.0
  C  C38  1  0.35122000  0.20642000  0.95287000  1.0
  C  C39  1  0.79358000  0.64878000  0.54713000  1.0
  C  C40  1  0.51287000  0.77170000  0.03377000  1.0
  C  C41  1  0.22830000  0.48713000  0.46624000  1.0
  C  C42  1  0.48713000  0.22830000  0.96624000  1.0
  C  C43  1  0.77170000  0.51287000  0.53376000  1.0
  C  C44  1  0.39473000  0.83207000  0.11943000  1.0
  C  C45  1  0.16793000  0.60527000  0.38057000  1.0
  C  C46  1  0.60527000  0.16794000  0.88057000  1.0
  C  C47  1  0.83207000  0.39473000  0.61943000  1.0
  N  N48  1  0.41299000  0.90881000  0.21451000  1.0
  N  N49  1  0.09120000  0.58701000  0.28549000  1.0
  N  N50  1  0.58701000  0.09119000  0.78549000  1.0
  N  N51  1  0.90881000  0.41299000  0.71451000  1.0
  Cl  Cl52  1  0.78547000  0.43713000  0.06472000  1.0
  Cl  Cl53  1  0.56287000  0.21454000  0.43527000  1.0
  Cl  Cl54  1  0.21453000  0.56287000  0.93527000  1.0
  Cl  Cl55  1  0.43713000  0.78546000  0.56473000  1.0
  O  O56  1  0.82459000  0.06484000  0.08832000  1.0
  O  O57  1  0.93516000  0.17541000  0.41168000  1.0
  O  O58  1  0.17541000  0.93516000  0.91168000  1.0
  O  O59  1  0.06484000  0.82459000  0.58832000  1.0
  O  O60  1  0.84043000  0.91247000  0.31683000  1.0
  O  O61  1  0.08753000  0.15957000  0.18317000  1.0
  O  O62  1  0.15957000  0.08753000  0.68317000  1.0
  O  O63  1  0.91247000  0.84043000  0.81683000  1.0
  O  O64  1  0.95971000  0.79480000  0.11321000  1.0
  O  O65  1  0.20520000  0.04029000  0.38679000  1.0
  O  O66  1  0.04029000  0.20520000  0.88679000  1.0
  O  O67  1  0.79480000  0.95971000  0.61321000  1.0
