# generated using pymatgen
data_ZnH20C11I2N2O9
_symmetry_space_group_name_H-M   'P 1'
_cell_length_a   7.88671000
_cell_length_b   8.04671000
_cell_length_c   14.50120000
_cell_angle_alpha   90.00070000
_cell_angle_beta   90.00040000
_cell_angle_gamma   89.99950000
_symmetry_Int_Tables_number   1
_chemical_formula_structural   ZnH20C11I2N2O9
_chemical_formula_sum   'Zn2 H40 C22 I4 N4 O18'
_cell_volume   920.27614361
_cell_formula_units_Z   2
loop_
 _symmetry_equiv_pos_site_id
 _symmetry_equiv_pos_as_xyz
  1  'x, y, z'
loop_
 _atom_site_type_symbol
 _atom_site_label
 _atom_site_symmetry_multiplicity
 _atom_site_fract_x
 _atom_site_fract_y
 _atom_site_fract_z
 _atom_site_occupancy
  Zn  Zn0  1  0.56876000  0.72809000  0.50000000  1.0
  Zn  Zn1  1  0.06877000  0.27191000  0.00000000  1.0
  H  H2  1  0.32627000  0.65389000  0.16543000  1.0
  H  H3  1  0.82627000  0.34610000  0.33456000  1.0
  H  H4  1  0.82627000  0.34610000  0.66543000  1.0
  H  H5  1  0.32626000  0.65389000  0.83457000  1.0
  H  H6  1  0.40296000  0.86199000  0.15941000  1.0
  H  H7  1  0.90296000  0.13801000  0.34058000  1.0
  H  H8  1  0.90297000  0.13801000  0.65941000  1.0
  H  H9  1  0.40295000  0.86199000  0.84060000  1.0
  H  H10  1  0.67533000  0.91061000  0.22057000  1.0
  H  H11  1  0.17534000  0.08939000  0.27943000  1.0
  H  H12  1  0.17535000  0.08940000  0.72056000  1.0
  H  H13  1  0.67532000  0.91060000  0.77944000  1.0
  H  H14  1  0.75565000  0.85793000  0.11003000  1.0
  H  H15  1  0.25566000  0.14207000  0.38998000  1.0
  H  H16  1  0.25565000  0.14207000  0.61002000  1.0
  H  H17  1  0.75565000  0.85793000  0.88997000  1.0
  H  H18  1  0.52109000  0.46808000  0.09434000  1.0
  H  H19  1  0.02108000  0.53191000  0.40566000  1.0
  H  H20  1  0.02107000  0.53191000  0.59434000  1.0
  H  H21  1  0.52109000  0.46808000  0.90566000  1.0
  H  H22  1  0.73628000  0.53289000  0.08031000  1.0
  H  H23  1  0.23627000  0.46711000  0.41969000  1.0
  H  H24  1  0.23627000  0.46711000  0.58031000  1.0
  H  H25  1  0.73628000  0.53289000  0.91969000  1.0
  H  H26  1  0.62392000  0.79576000  0.00000000  1.0
  H  H27  1  0.12392000  0.20423000  0.50000000  1.0
  H  H28  1  0.41976000  0.70398000  0.00000000  1.0
  H  H29  1  0.91975000  0.29601000  0.50000000  1.0
  H  H30  1  0.62309000  0.59415000  0.22574000  1.0
  H  H31  1  0.12309000  0.40585000  0.27427000  1.0
  H  H32  1  0.12308000  0.40585000  0.72573000  1.0
  H  H33  1  0.62307000  0.59415000  0.77426000  1.0
  H  H34  1  0.28247000  0.83462000  0.44308000  1.0
  H  H35  1  0.78248000  0.16538000  0.05691000  1.0
  H  H36  1  0.78247000  0.16537000  0.94308000  1.0
  H  H37  1  0.28246000  0.83462000  0.55692000  1.0
  H  H38  1  0.10679000  0.81709000  0.27049000  1.0
  H  H39  1  0.60679000  0.18292000  0.22951000  1.0
  H  H40  1  0.60680000  0.18293000  0.77048000  1.0
  H  H41  1  0.10678000  0.81708000  0.72952000  1.0
  C  C42  1  0.42021000  0.74086000  0.19333000  1.0
  C  C43  1  0.92022000  0.25914000  0.30667000  1.0
  C  C44  1  0.92022000  0.25914000  0.69333000  1.0
  C  C45  1  0.42020000  0.74085000  0.80667000  1.0
  C  C46  1  0.40197000  0.75554000  0.29776000  1.0
  C  C47  1  0.90199000  0.24446000  0.20223000  1.0
  C  C48  1  0.90198000  0.24446000  0.79776000  1.0
  C  C49  1  0.40194000  0.75554000  0.70224000  1.0
  C  C50  1  0.72566000  0.80915000  0.17864000  1.0
  C  C51  1  0.22566000  0.19085000  0.32137000  1.0
  C  C52  1  0.22566000  0.19085000  0.67863000  1.0
  C  C53  1  0.72565000  0.80915000  0.82137000  1.0
  C  C54  1  0.88402000  0.74297000  0.22464000  1.0
  C  C55  1  0.38403000  0.25705000  0.27536000  1.0
  C  C56  1  0.38403000  0.25706000  0.72464000  1.0
  C  C57  1  0.88402000  0.74295000  0.77536000  1.0
  C  C58  1  0.60432000  0.57601000  0.08473000  1.0
  C  C59  1  0.10431000  0.42399000  0.41527000  1.0
  C  C60  1  0.10431000  0.42399000  0.58473000  1.0
  C  C61  1  0.60432000  0.57601000  0.91527000  1.0
  C  C62  1  0.55628000  0.67626000  0.00000000  1.0
  C  C63  1  0.05627000  0.32373000  0.50000000  1.0
  I  I64  1  0.57361000  0.40166000  0.50000000  1.0
  I  I65  1  0.07360000  0.59834000  0.00000000  1.0
  I  I66  1  0.85946000  0.87821000  0.50000000  1.0
  I  I67  1  0.35948000  0.12179000  0.00000000  1.0
  N  N68  1  0.59409000  0.67572000  0.17228000  1.0
  N  N69  1  0.09409000  0.32428000  0.32772000  1.0
  N  N70  1  0.09409000  0.32428000  0.67228000  1.0
  N  N71  1  0.59408000  0.67572000  0.82772000  1.0
  O  O72  1  0.34677000  0.86539000  0.50000000  1.0
  O  O73  1  0.84678000  0.13460000  0.00000000  1.0
  O  O74  1  0.53253000  0.73249000  0.34567000  1.0
  O  O75  1  0.03253000  0.26750000  0.15433000  1.0
  O  O76  1  0.03253000  0.26750000  0.84567000  1.0
  O  O77  1  0.53253000  0.73249000  0.65433000  1.0
  O  O78  1  0.25401000  0.78959000  0.32914000  1.0
  O  O79  1  0.75400000  0.21042000  0.17086000  1.0
  O  O80  1  0.75401000  0.21042000  0.82914000  1.0
  O  O81  1  0.25401000  0.78958000  0.67087000  1.0
  O  O82  1  0.89457000  0.59835000  0.25178000  1.0
  O  O83  1  0.39457000  0.40165000  0.24823000  1.0
  O  O84  1  0.39457000  0.40166000  0.75177000  1.0
  O  O85  1  0.89456000  0.59835000  0.74822000  1.0
  O  O86  1  0.00058000  0.85864000  0.23260000  1.0
  O  O87  1  0.50060000  0.14136000  0.26740000  1.0
  O  O88  1  0.50059000  0.14136000  0.73259000  1.0
  O  O89  1  0.00058000  0.85863000  0.76740000  1.0
