# generated using pymatgen
data_CuPH5C5NClO4
_symmetry_space_group_name_H-M   'P 1'
_cell_length_a   6.89489000
_cell_length_b   6.92286000
_cell_length_c   17.39080000
_cell_angle_alpha   89.99970000
_cell_angle_beta   88.97410000
_cell_angle_gamma   89.99580000
_symmetry_Int_Tables_number   1
_chemical_formula_structural   CuPH5C5NClO4
_chemical_formula_sum   'Cu4 P4 H20 C20 N4 Cl4 O16'
_cell_volume   829.97083000
_cell_formula_units_Z   4
loop_
 _symmetry_equiv_pos_site_id
 _symmetry_equiv_pos_as_xyz
  1  'x, y, z'
loop_
 _atom_site_type_symbol
 _atom_site_label
 _atom_site_symmetry_multiplicity
 _atom_site_fract_x
 _atom_site_fract_y
 _atom_site_fract_z
 _atom_site_occupancy
  Cu  Cu0  1  0.49996000  0.99999000  0.00000000  1.0
  Cu  Cu1  1  0.49997000  0.50000000  0.49999000  1.0
  Cu  Cu2  1  0.99996000  0.00000000  0.00000000  1.0
  Cu  Cu3  1  0.99997000  0.50001000  0.50000000  1.0
  P  P4  1  0.75926000  0.70439000  0.92138000  1.0
  P  P5  1  0.24073000  0.20438000  0.57860000  1.0
  P  P6  1  0.24070000  0.29559000  0.07862000  1.0
  P  P7  1  0.75924000  0.79563000  0.42139000  1.0
  H  H8  1  0.80844000  0.62149000  0.75350000  1.0
  H  H9  1  0.19163000  0.12146000  0.74649000  1.0
  H  H10  1  0.19159000  0.37850000  0.24651000  1.0
  H  H11  1  0.80844000  0.87855000  0.25350000  1.0
  H  H12  1  0.79119000  0.83277000  0.63759000  1.0
  H  H13  1  0.20889000  0.33274000  0.86241000  1.0
  H  H14  1  0.20887000  0.16721000  0.36242000  1.0
  H  H15  1  0.79121000  0.66726000  0.13759000  1.0
  H  H16  1  0.71565000  0.18632000  0.65625000  1.0
  H  H17  1  0.28441000  0.68629000  0.84375000  1.0
  H  H18  1  0.28443000  0.81367000  0.34375000  1.0
  H  H19  1  0.71563000  0.31373000  0.15625000  1.0
  H  H20  1  0.68707000  0.31358000  0.79167000  1.0
  H  H21  1  0.31294000  0.81357000  0.70833000  1.0
  H  H22  1  0.31296000  0.68640000  0.20833000  1.0
  H  H23  1  0.68704000  0.18645000  0.29167000  1.0
  H  H24  1  0.75161000  0.36867000  0.90938000  1.0
  H  H25  1  0.24838000  0.86868000  0.59062000  1.0
  H  H26  1  0.24835000  0.63132000  0.09063000  1.0
  H  H27  1  0.75159000  0.13134000  0.40938000  1.0
  C  C28  1  0.76486000  0.85161000  0.83356000  1.0
  C  C29  1  0.23513000  0.35161000  0.66643000  1.0
  C  C30  1  0.23512000  0.14839000  0.16644000  1.0
  C  C31  1  0.76488000  0.64841000  0.33357000  1.0
  C  C32  1  0.78434000  0.77601000  0.75951000  1.0
  C  C33  1  0.21570000  0.27600000  0.74048000  1.0
  C  C34  1  0.21569000  0.22398000  0.24049000  1.0
  C  C35  1  0.78436000  0.72402000  0.25952000  1.0
  C  C36  1  0.77295000  0.89393000  0.69481000  1.0
  C  C37  1  0.22712000  0.39391000  0.80518000  1.0
  C  C38  1  0.22711000  0.10604000  0.30519000  1.0
  C  C39  1  0.77295000  0.60610000  0.19481000  1.0
  C  C40  1  0.73211000  0.08914000  0.70503000  1.0
  C  C41  1  0.26796000  0.58911000  0.79496000  1.0
  C  C42  1  0.26796000  0.91084000  0.29497000  1.0
  C  C43  1  0.73208000  0.41090000  0.20503000  1.0
  C  C44  1  0.71559000  0.16288000  0.77866000  1.0
  C  C45  1  0.28443000  0.66286000  0.72133000  1.0
  C  C46  1  0.28445000  0.83711000  0.22134000  1.0
  C  C47  1  0.71556000  0.33716000  0.27866000  1.0
  N  N48  1  0.73986000  0.04764000  0.84122000  1.0
  N  N49  1  0.26014000  0.54763000  0.65877000  1.0
  N  N50  1  0.26014000  0.95236000  0.15878000  1.0
  N  N51  1  0.73984000  0.45239000  0.34122000  1.0
  Cl  Cl52  1  0.74792000  0.99676000  0.09020000  1.0
  Cl  Cl53  1  0.25199000  0.49676000  0.40980000  1.0
  Cl  Cl54  1  0.25198000  0.00324000  0.90980000  1.0
  Cl  Cl55  1  0.74793000  0.50325000  0.59020000  1.0
  O  O56  1  0.56621000  0.74111000  0.96282000  1.0
  O  O57  1  0.43377000  0.24111000  0.53716000  1.0
  O  O58  1  0.43373000  0.25887000  0.03716000  1.0
  O  O59  1  0.56619000  0.75889000  0.46282000  1.0
  O  O60  1  0.76333000  0.49920000  0.88319000  1.0
  O  O61  1  0.23671000  0.99920000  0.61680000  1.0
  O  O62  1  0.23666000  0.50079000  0.11682000  1.0
  O  O63  1  0.76327000  0.00082000  0.38320000  1.0
  O  O64  1  0.94276000  0.73861000  0.96689000  1.0
  O  O65  1  0.05721000  0.23861000  0.53311000  1.0
  O  O66  1  0.05719000  0.26137000  0.03313000  1.0
  O  O67  1  0.94274000  0.76141000  0.46690000  1.0
  O  O68  1  0.73838000  0.12669000  0.91121000  1.0
  O  O69  1  0.26158000  0.62668000  0.58879000  1.0
  O  O70  1  0.26158000  0.87330000  0.08880000  1.0
  O  O71  1  0.73839000  0.37333000  0.41120000  1.0
