# generated using pymatgen
data_ZnH6(CN2)4
_symmetry_space_group_name_H-M   'P 1'
_cell_length_a   9.33288000
_cell_length_b   9.53510000
_cell_length_c   9.53513000
_cell_angle_alpha   92.98080000
_cell_angle_beta   114.14700000
_cell_angle_gamma   114.14700000
_symmetry_Int_Tables_number   1
_chemical_formula_structural   ZnH6(CN2)4
_chemical_formula_sum   'Zn2 H12 C8 N16'
_cell_volume   681.57669863
_cell_formula_units_Z   2
loop_
 _symmetry_equiv_pos_site_id
 _symmetry_equiv_pos_as_xyz
  1  'x, y, z'
loop_
 _atom_site_type_symbol
 _atom_site_label
 _atom_site_symmetry_multiplicity
 _atom_site_fract_x
 _atom_site_fract_y
 _atom_site_fract_z
 _atom_site_occupancy
  Zn  Zn0  1  0.60326000  0.42814000  0.14006000  1.0
  Zn  Zn1  1  0.10326000  0.14006000  0.42814000  1.0
  H  H2  1  0.88903000  0.95647000  0.08851000  1.0
  H  H3  1  0.38903000  0.08851000  0.95647000  1.0
  H  H4  1  0.66455000  0.80387000  0.01444000  1.0
  H  H5  1  0.16455000  0.01444000  0.80387000  1.0
  H  H6  1  0.82190000  0.75588000  0.99956000  1.0
  H  H7  1  0.32190000  0.99956000  0.75588000  1.0
  H  H8  1  0.68571000  0.41212000  0.48047000  1.0
  H  H9  1  0.18571000  0.48047000  0.41213000  1.0
  H  H10  1  0.56297000  0.23430000  0.52218000  1.0
  H  H11  1  0.06297000  0.52218000  0.23430000  1.0
  H  H12  1  0.56380000  0.41503000  0.58166000  1.0
  H  H13  1  0.06380000  0.58166000  0.41503000  1.0
  C  C14  1  0.84943000  0.79674000  0.23383000  1.0
  C  C15  1  0.34943000  0.23383000  0.79674000  1.0
  C  C16  1  0.40439000  0.30134000  0.33328000  1.0
  C  C17  1  0.90439000  0.33329000  0.30135000  1.0
  C  C18  1  0.80484000  0.83111000  0.07597000  1.0
  C  C19  1  0.30484000  0.07597000  0.83111000  1.0
  C  C20  1  0.56346000  0.34267000  0.48800000  1.0
  C  C21  1  0.06346000  0.48800000  0.34268000  1.0
  N  N22  1  0.97065000  0.90371000  0.37572000  1.0
  N  N23  1  0.47065000  0.37572000  0.90371000  1.0
  N  N24  1  0.77565000  0.65471000  0.26184000  1.0
  N  N25  1  0.27565000  0.26184000  0.65470000  1.0
  N  N26  1  0.13111000  0.21011000  0.14595000  1.0
  N  N27  1  0.63111000  0.14595000  0.21011000  1.0
  N  N28  1  0.40684000  0.33872000  0.20014000  1.0
  N  N29  1  0.90684000  0.20014000  0.33872000  1.0
  N  N30  1  0.23480000  0.28006000  0.08552000  1.0
  N  N31  1  0.73480000  0.08552000  0.28006000  1.0
  N  N32  1  0.96871000  0.82577000  0.49092000  1.0
  N  N33  1  0.46872000  0.49092000  0.82577000  1.0
  N  N34  1  0.23328000  0.22120000  0.30134000  1.0
  N  N35  1  0.73328000  0.30134000  0.22120000  1.0
  N  N36  1  0.85263000  0.67700000  0.42311000  1.0
  N  N37  1  0.35263000  0.42311000  0.67700000  1.0
