# generated using pymatgen
data_MnH15C23N2O5
_symmetry_space_group_name_H-M   'P 1'
_cell_length_a   9.67927000
_cell_length_b   10.57920000
_cell_length_c   10.87500000
_cell_angle_alpha   105.21700000
_cell_angle_beta   111.72000000
_cell_angle_gamma   107.17400000
_symmetry_Int_Tables_number   1
_chemical_formula_structural   MnH15C23N2O5
_chemical_formula_sum   'Mn2 H30 C46 N4 O10'
_cell_volume   897.53030818
_cell_formula_units_Z   2
loop_
 _symmetry_equiv_pos_site_id
 _symmetry_equiv_pos_as_xyz
  1  'x, y, z'
loop_
 _atom_site_type_symbol
 _atom_site_label
 _atom_site_symmetry_multiplicity
 _atom_site_fract_x
 _atom_site_fract_y
 _atom_site_fract_z
 _atom_site_occupancy
  Mn  Mn0  1  0.14834000  0.02475000  0.16669000  1.0
  Mn  Mn1  1  0.85166000  0.97525000  0.83331000  1.0
  H  H2  1  0.65206000  0.85466000  0.05707000  1.0
  H  H3  1  0.34793000  0.14534000  0.94292000  1.0
  H  H4  1  0.88089000  0.29279000  0.03002000  1.0
  H  H5  1  0.11910000  0.70720000  0.96997000  1.0
  H  H6  1  0.02770000  0.55692000  0.10707000  1.0
  H  H7  1  0.97230000  0.44308000  0.89293000  1.0
  H  H8  1  0.49194000  0.35889000  0.09981000  1.0
  H  H9  1  0.50806000  0.64112000  0.90019000  1.0
  H  H10  1  0.64055000  0.62239000  0.17394000  1.0
  H  H11  1  0.35945000  0.37761000  0.82606000  1.0
  H  H12  1  0.33326000  0.82540000  0.24396000  1.0
  H  H13  1  0.66666667  0.17461000  0.75603000  1.0
  H  H14  1  0.62782000  0.86301000  0.38675000  1.0
  H  H15  1  0.37216000  0.13698000  0.61325000  1.0
  H  H16  1  0.85670000  0.11270000  0.50619000  1.0
  H  H17  1  0.14330000  0.88729000  0.49381000  1.0
  H  H18  1  0.94391000  0.38182000  0.57004000  1.0
  H  H19  1  0.05609000  0.61817000  0.42996000  1.0
  H  H20  1  0.86914000  0.58068000  0.54652000  1.0
  H  H21  1  0.13087000  0.41931000  0.45349000  1.0
  H  H22  1  0.65089000  0.66176000  0.43453000  1.0
  H  H23  1  0.34913000  0.33824000  0.56547000  1.0
  H  H24  1  0.35306000  0.59040000  0.26308000  1.0
  H  H25  1  0.64696000  0.40961000  0.73692000  1.0
  H  H26  1  0.14955000  0.32720000  0.13902000  1.0
  H  H27  1  0.85046000  0.67281000  0.86099000  1.0
  H  H28  1  0.08456000  0.16796000  0.35301000  1.0
  H  H29  1  0.91543000  0.83204000  0.64699000  1.0
  H  H30  1  0.05681000  0.01527000  0.35590000  1.0
  H  H31  1  0.94320000  0.98473000  0.64410000  1.0
  C  C32  1  0.85682000  0.11788000  0.13654000  1.0
  C  C33  1  0.14317000  0.88212000  0.86345000  1.0
  C  C34  1  0.67225000  0.06167000  0.05952000  1.0
  C  C35  1  0.32773000  0.93833000  0.94047000  1.0
  C  C36  1  0.58255000  0.91631000  0.02789000  1.0
  C  C37  1  0.41744000  0.08369000  0.97210000  1.0
  C  C38  1  0.59007000  0.14974000  0.03207000  1.0
  C  C39  1  0.40993000  0.85026000  0.96792000  1.0
  C  C40  1  0.67654000  0.30477000  0.06437000  1.0
  C  C41  1  0.32346000  0.69523000  0.93563000  1.0
  C  C42  1  0.82744000  0.36339000  0.06418000  1.0
  C  C43  1  0.17255000  0.63660000  0.93581000  1.0
  C  C44  1  0.90947000  0.51193000  0.10442000  1.0
  C  C45  1  0.09053000  0.48807000  0.89557000  1.0
  C  C46  1  0.60931000  0.40073000  0.10035000  1.0
  C  C47  1  0.39069000  0.59927000  0.89965000  1.0
  C  C48  1  0.69207000  0.54914000  0.14197000  1.0
  C  C49  1  0.30794000  0.45086000  0.85803000  1.0
  C  C50  1  0.84387000  0.60696000  0.14516000  1.0
  C  C51  1  0.15613000  0.39304000  0.85484000  1.0
  C  C52  1  0.93468000  0.76769000  0.19459000  1.0
  C  C53  1  0.06533000  0.23230000  0.80541000  1.0
  C  C54  1  0.43799000  0.93267000  0.29738000  1.0
  C  C55  1  0.56201000  0.06733000  0.70261000  1.0
  C  C56  1  0.60114000  0.95389000  0.37689000  1.0
  C  C57  1  0.39885000  0.04610000  0.62311000  1.0
  C  C58  1  0.72853000  0.09278000  0.44421000  1.0
  C  C59  1  0.27146000  0.90722000  0.55579000  1.0
  C  C60  1  0.69202000  0.21032000  0.43270000  1.0
  C  C61  1  0.30798000  0.78968000  0.56730000  1.0
  C  C62  1  0.81546000  0.35824000  0.50315000  1.0
  C  C63  1  0.18454000  0.64176000  0.49686000  1.0
  C  C64  1  0.77412000  0.46841000  0.48888000  1.0
  C  C65  1  0.22589000  0.53159000  0.51113000  1.0
  C  C66  1  0.60641000  0.43874000  0.39936000  1.0
  C  C67  1  0.39360000  0.56126000  0.60064000  1.0
  C  C68  1  0.55808000  0.54824000  0.37763000  1.0
  C  C69  1  0.44193000  0.45177000  0.62237000  1.0
  C  C70  1  0.39461000  0.50931000  0.28384000  1.0
  C  C71  1  0.60540000  0.49070000  0.71616000  1.0
  C  C72  1  0.27913000  0.36202000  0.21441000  1.0
  C  C73  1  0.72088000  0.63799000  0.78560000  1.0
  C  C74  1  0.48107000  0.29315000  0.32640000  1.0
  C  C75  1  0.51894000  0.70686000  0.67361000  1.0
  C  C76  1  0.52388000  0.17780000  0.34656000  1.0
  C  C77  1  0.47612000  0.82220000  0.65344000  1.0
  N  N78  1  0.40026000  0.04061000  0.28075000  1.0
  N  N79  1  0.59974000  0.95939000  0.71925000  1.0
  N  N80  1  0.32049000  0.25715000  0.23613000  1.0
  N  N81  1  0.67952000  0.74286000  0.76388000  1.0
  O  O82  1  0.92053000  0.05656000  0.06672000  1.0
  O  O83  1  0.07946000  0.94344000  0.93328000  1.0
  O  O84  1  0.93851000  0.21320000  0.26510000  1.0
  O  O85  1  0.06148000  0.78680000  0.73490000  1.0
  O  O86  1  0.03422000  0.81008000  0.14561000  1.0
  O  O87  1  0.96578000  0.18991000  0.85439000  1.0
  O  O88  1  0.90927000  0.85120000  0.28195000  1.0
  O  O89  1  0.09073000  0.14880000  0.71805000  1.0
  O  O90  1  0.14705000  0.10976000  0.37714000  1.0
  O  O91  1  0.85294000  0.89024000  0.62286000  1.0
