# generated using pymatgen
data_Ag2H11C14(NO2)3
_symmetry_space_group_name_H-M   'P 1'
_cell_length_a   6.79886000
_cell_length_b   10.26840000
_cell_length_c   11.15380000
_cell_angle_alpha   93.96110000
_cell_angle_beta   97.95990000
_cell_angle_gamma   96.72510000
_symmetry_Int_Tables_number   1
_chemical_formula_structural   Ag2H11C14(NO2)3
_chemical_formula_sum   'Ag4 H22 C28 N6 O12'
_cell_volume   762.99081093
_cell_formula_units_Z   2
loop_
 _symmetry_equiv_pos_site_id
 _symmetry_equiv_pos_as_xyz
  1  'x, y, z'
loop_
 _atom_site_type_symbol
 _atom_site_label
 _atom_site_symmetry_multiplicity
 _atom_site_fract_x
 _atom_site_fract_y
 _atom_site_fract_z
 _atom_site_occupancy
  Ag  Ag0  1  0.94724000  0.87758000  0.54332000  1.0
  Ag  Ag1  1  0.05277000  0.12242000  0.45668000  1.0
  Ag  Ag2  1  0.63412000  0.16600000  0.54951000  1.0
  Ag  Ag3  1  0.36589000  0.83400000  0.45049000  1.0
  H  H4  1  0.87532000  0.01939000  0.94806000  1.0
  H  H5  1  0.12467000  0.98060000  0.05194000  1.0
  H  H6  1  0.82842000  0.18574000  0.11225000  1.0
  H  H7  1  0.17157000  0.81426000  0.88775000  1.0
  H  H8  1  0.52326000  0.30638000  0.08189000  1.0
  H  H9  1  0.47674000  0.69362000  0.91811000  1.0
  H  H10  1  0.56241000  0.34442000  0.75416000  1.0
  H  H11  1  0.43760000  0.65557000  0.24584000  1.0
  H  H12  1  0.73881000  0.47059000  0.84166000  1.0
  H  H13  1  0.26120000  0.52941000  0.15834000  1.0
  H  H14  1  0.81855000  0.32237000  0.78492000  1.0
  H  H15  1  0.18146000  0.67763000  0.21508000  1.0
  H  H16  1  0.84845000  0.65318000  0.73354000  1.0
  H  H17  1  0.15156000  0.34682000  0.26646000  1.0
  H  H18  1  0.80440000  0.61645000  0.35891000  1.0
  H  H19  1  0.19561000  0.38354000  0.64109000  1.0
  H  H20  1  0.75967000  0.26468000  0.32299000  1.0
  H  H21  1  0.24033000  0.73532000  0.67701000  1.0
  H  H22  1  0.71217000  0.40771000  0.24603000  1.0
  H  H23  1  0.28783000  0.59229000  0.75397000  1.0
  H  H24  1  0.51680000  0.31028000  0.30419000  1.0
  H  H25  1  0.48320000  0.68972000  0.69581000  1.0
  C  C26  1  0.60759000  0.04303000  0.83231000  1.0
  C  C27  1  0.39241000  0.95697000  0.16769000  1.0
  C  C28  1  0.74529000  0.07238000  0.93902000  1.0
  C  C29  1  0.25470000  0.92762000  0.06098000  1.0
  C  C30  1  0.71963000  0.16658000  0.02976000  1.0
  C  C31  1  0.28036000  0.83342000  0.97024000  1.0
  C  C32  1  0.55174000  0.23228000  0.01445000  1.0
  C  C33  1  0.44825000  0.76772000  0.98555000  1.0
  C  C34  1  0.40966000  0.19844000  0.91085000  1.0
  C  C35  1  0.59034000  0.80156000  0.08915000  1.0
  C  C36  1  0.43155000  0.10332000  0.81846000  1.0
  C  C37  1  0.56844000  0.89667000  0.18154000  1.0
  C  C38  1  0.27777000  0.06847000  0.70664000  1.0
  C  C39  1  0.72223000  0.93153000  0.29336000  1.0
  C  C40  1  0.65773000  0.94661000  0.73621000  1.0
  C  C41  1  0.34227000  0.05339000  0.26378000  1.0
  C  C42  1  0.71566000  0.39570000  0.76434000  1.0
  C  C43  1  0.28434000  0.60430000  0.23566000  1.0
  C  C44  1  0.74765000  0.45499000  0.64964000  1.0
  C  C45  1  0.25235000  0.54501000  0.35036000  1.0
  C  C46  1  0.81539000  0.58900000  0.64940000  1.0
  C  C47  1  0.18461000  0.41100000  0.35060000  1.0
  C  C48  1  0.79010000  0.56874000  0.44214000  1.0
  C  C49  1  0.20990000  0.43126000  0.55786000  1.0
  C  C50  1  0.72554000  0.43374000  0.43844000  1.0
  C  C51  1  0.27446000  0.56626000  0.56156000  1.0
  C  C52  1  0.67649000  0.35036000  0.32137000  1.0
  C  C53  1  0.32351000  0.64964000  0.67863000  1.0
  N  N54  1  0.70768000  0.37773000  0.54338000  1.0
  N  N55  1  0.29231000  0.62227000  0.45662000  1.0
  N  N56  1  0.83781000  0.64512000  0.54661000  1.0
  N  N57  1  0.16219000  0.35488000  0.45339000  1.0
  N  N58  1  0.23338000  0.26751000  0.89948000  1.0
  N  N59  1  0.76662000  0.73249000  0.10052000  1.0
  O  O60  1  0.73834000  0.84982000  0.77046000  1.0
  O  O61  1  0.26166000  0.15018000  0.22955000  1.0
  O  O62  1  0.61716000  0.97090000  0.62287000  1.0
  O  O63  1  0.38284000  0.02910000  0.37712000  1.0
  O  O64  1  0.17846000  0.95520000  0.69846000  1.0
  O  O65  1  0.82154000  0.04480000  0.30153000  1.0
  O  O66  1  0.26871000  0.15499000  0.63064000  1.0
  O  O67  1  0.73130000  0.84501000  0.36936000  1.0
  O  O68  1  0.07770000  0.21029000  0.83645000  1.0
  O  O69  1  0.92230000  0.78971000  0.16355000  1.0
  O  O70  1  0.24770000  0.38029000  0.95140000  1.0
  O  O71  1  0.75230000  0.61971000  0.04860000  1.0
