# generated using pymatgen
data_CdH6C6S2N3O
_symmetry_space_group_name_H-M   'P 1'
_cell_length_a   8.22848000
_cell_length_b   8.40866000
_cell_length_c   8.40859000
_cell_angle_alpha   105.56900000
_cell_angle_beta   108.53100000
_cell_angle_gamma   108.53200000
_symmetry_Int_Tables_number   1
_chemical_formula_structural   CdH6C6S2N3O
_chemical_formula_sum   'Cd2 H12 C12 S4 N6 O2'
_cell_volume   476.82724596
_cell_formula_units_Z   2
loop_
 _symmetry_equiv_pos_site_id
 _symmetry_equiv_pos_as_xyz
  1  'x, y, z'
loop_
 _atom_site_type_symbol
 _atom_site_label
 _atom_site_symmetry_multiplicity
 _atom_site_fract_x
 _atom_site_fract_y
 _atom_site_fract_z
 _atom_site_occupancy
  Cd  Cd0  1  0.00000000  0.02184000  0.97816000  1.0
  Cd  Cd1  1  0.99999000  0.72163000  0.27836000  1.0
  H  H2  1  0.02424000  0.59962000  0.85482000  1.0
  H  H3  1  0.97576000  0.14518000  0.40038000  1.0
  H  H4  1  0.13343000  0.44687000  0.83828000  1.0
  H  H5  1  0.86657000  0.16172000  0.55313000  1.0
  H  H6  1  0.13413000  0.57781000  0.70313000  1.0
  H  H7  1  0.86587000  0.29687000  0.42219000  1.0
  H  H8  1  0.39036000  0.20012000  0.33674000  1.0
  H  H9  1  0.60964000  0.66327000  0.79988000  1.0
  H  H10  1  0.62362000  0.25820000  0.50070000  1.0
  H  H11  1  0.37639000  0.49930000  0.74180000  1.0
  H  H12  1  0.41762000  0.08063000  0.47827000  1.0
  H  H13  1  0.58238000  0.52173000  0.91937000  1.0
  C  C14  1  0.14311000  0.58004000  0.83711000  1.0
  C  C15  1  0.85689000  0.16290000  0.41996000  1.0
  C  C16  1  0.32873000  0.73046000  0.98654000  1.0
  C  C17  1  0.67128000  0.01347000  0.26954000  1.0
  C  C18  1  0.49788000  0.00685000  0.26289000  1.0
  C  C19  1  0.50212000  0.73710000  0.99316000  1.0
  C  C20  1  0.48348000  0.14515000  0.40291000  1.0
  C  C21  1  0.51652000  0.59709000  0.85485000  1.0
  C  C22  1  0.21038000  0.06276000  0.70167000  1.0
  C  C23  1  0.78962000  0.29833000  0.93725000  1.0
  C  C24  1  0.21067000  0.44505000  0.31962000  1.0
  C  C25  1  0.78932000  0.68039000  0.55496000  1.0
  S  S26  1  0.29848000  0.66438000  0.44481000  1.0
  S  S27  1  0.70151000  0.55519000  0.33560000  1.0
  S  S28  1  0.29851000  0.18733000  0.92131000  1.0
  S  S29  1  0.70149000  0.07869000  0.81267000  1.0
  N  N30  1  0.14896000  0.28485000  0.23568000  1.0
  N  N31  1  0.85104000  0.76431000  0.71513000  1.0
  N  N32  1  0.14861000  0.97900000  0.54146000  1.0
  N  N33  1  0.85138000  0.45852000  0.02099000  1.0
  N  N34  1  0.33018000  0.86591000  0.12216000  1.0
  N  N35  1  0.66982000  0.87784000  0.13409000  1.0
  O  O36  1  0.16767000  0.86280000  0.11974000  1.0
  O  O37  1  0.83233000  0.88027000  0.13720000  1.0
