# generated using pymatgen
data_ZnH24C43(N2O3)2
_symmetry_space_group_name_H-M   'P 1'
_cell_length_a   15.87310000
_cell_length_b   17.21490000
_cell_length_c   28.05520000
_cell_angle_alpha   90.06830000
_cell_angle_beta   91.82200000
_cell_angle_gamma   92.38620000
_symmetry_Int_Tables_number   1
_chemical_formula_structural   ZnH24C43(N2O3)2
_chemical_formula_sum   'Zn2 H48 C86 N8 O12'
_cell_volume   7655.64661386
_cell_formula_units_Z   2
loop_
 _symmetry_equiv_pos_site_id
 _symmetry_equiv_pos_as_xyz
  1  'x, y, z'
loop_
 _atom_site_type_symbol
 _atom_site_label
 _atom_site_symmetry_multiplicity
 _atom_site_fract_x
 _atom_site_fract_y
 _atom_site_fract_z
 _atom_site_occupancy
  Zn  Zn0  1  0.58781000  0.49842000  0.50206000  1.0
  Zn  Zn1  1  0.41201000  0.50202000  0.49843000  1.0
  H  H2  1  0.40252000  0.55893000  0.25164000  1.0
  H  H3  1  0.40279000  0.42643000  0.74410000  1.0
  H  H4  1  0.54925000  0.69215000  0.12623000  1.0
  H  H5  1  0.55593000  0.31244000  0.87598000  1.0
  H  H6  1  0.61254000  0.57504000  0.64951000  1.0
  H  H7  1  0.61818000  0.43914000  0.35609000  1.0
  H  H8  1  0.61994000  0.58357000  0.73868000  1.0
  H  H9  1  0.62868000  0.43104000  0.26722000  1.0
  H  H10  1  0.50349000  0.69726000  0.88071000  1.0
  H  H11  1  0.51915000  0.30214000  0.12047000  1.0
  H  H12  1  0.51606000  0.69805000  0.96889000  1.0
  H  H13  1  0.52864000  0.30284000  0.03256000  1.0
  H  H14  1  0.54799000  0.69746000  0.03799000  1.0
  H  H15  1  0.55798000  0.30729000  0.96425000  1.0
  H  H16  1  0.61500000  0.25101000  0.50426000  1.0
  H  H17  1  0.38303000  0.74674000  0.48763000  1.0
  H  H18  1  0.60943000  0.10524000  0.49443000  1.0
  H  H19  1  0.38770000  0.89247000  0.47760000  1.0
  H  H20  1  0.65824000  0.89346000  0.47760000  1.0
  H  H21  1  0.34280000  0.10900000  0.46395000  1.0
  H  H22  1  0.65310000  0.74743000  0.48755000  1.0
  H  H23  1  0.34873000  0.25518000  0.47415000  1.0
  H  H24  1  0.72669000  0.59315000  0.46281000  1.0
  H  H25  1  0.27167000  0.39293000  0.52189000  1.0
  H  H26  1  0.12766000  0.61989000  0.45834000  1.0
  H  H27  1  0.87425000  0.39615000  0.55617000  1.0
  H  H28  1  0.28657000  0.61596000  0.46677000  1.0
  H  H29  1  0.71454000  0.39651000  0.54717000  1.0
  H  H30  1  0.45730000  0.67177000  0.37382000  1.0
  H  H31  1  0.34287000  0.75605000  0.39711000  1.0
  H  H32  1  0.19213000  0.71451000  0.38017000  1.0
  H  H33  1  0.15781000  0.58754000  0.33977000  1.0
  H  H34  1  0.27333000  0.50443000  0.31497000  1.0
  H  H35  1  0.46656000  0.33774000  0.61091000  1.0
  H  H36  1  0.35933000  0.24273000  0.57716000  1.0
  H  H37  1  0.20808000  0.25109000  0.59789000  1.0
  H  H38  1  0.16623000  0.35472000  0.65340000  1.0
  H  H39  1  0.27401000  0.45005000  0.68701000  1.0
  H  H40  1  0.95282000  0.66865000  0.52582000  1.0
  H  H41  1  0.02419000  0.78068000  0.48598000  1.0
  H  H42  1  0.00790000  0.79658000  0.39781000  1.0
  H  H43  1  0.91745000  0.70111000  0.35039000  1.0
  H  H44  1  0.84549000  0.58951000  0.39055000  1.0
  H  H45  1  0.06182000  0.40617000  0.58796000  1.0
  H  H46  1  0.99156000  0.27966000  0.60953000  1.0
  H  H47  1  0.99158000  0.16752000  0.55327000  1.0
  H  H48  1  0.06361000  0.18223000  0.47588000  1.0
  H  H49  1  0.13576000  0.30813000  0.45545000  1.0
  C  C50  1  0.51321000  0.65283000  0.49571000  1.0
  C  C51  1  0.48678000  0.34755000  0.49634000  1.0
  C  C52  1  0.50222000  0.50201000  0.40692000  1.0
  C  C53  1  0.50219000  0.49822000  0.59328000  1.0
  C  C54  1  0.53528000  0.56816000  0.18159000  1.0
  C  C55  1  0.53354000  0.43418000  0.82008000  1.0
  C  C56  1  0.51920000  0.42266000  0.17934000  1.0
  C  C57  1  0.50928000  0.57707000  0.82180000  1.0
  C  C58  1  0.57715000  0.46040000  0.28333000  1.0
  C  C59  1  0.57082000  0.54789000  0.72024000  1.0
  C  C60  1  0.57112000  0.46482000  0.33255000  1.0
  C  C61  1  0.56641000  0.54314000  0.67074000  1.0
  C  C62  1  0.44226000  0.53617000  0.32428000  1.0
  C  C63  1  0.44249000  0.45513000  0.67324000  1.0
  C  C64  1  0.44871000  0.53099000  0.27469000  1.0
  C  C65  1  0.44731000  0.46076000  0.72312000  1.0
  C  C66  1  0.51561000  0.49427000  0.25461000  1.0
  C  C67  1  0.51099000  0.50590000  0.74621000  1.0
  C  C68  1  0.53360000  0.49788000  0.10271000  1.0
  C  C69  1  0.52964000  0.50406000  0.89897000  1.0
  C  C70  1  0.53770000  0.56826000  0.12897000  1.0
  C  C71  1  0.53699000  0.43442000  0.87282000  1.0
  C  C72  1  0.54449000  0.63884000  0.10513000  1.0
  C  C73  1  0.54860000  0.36500000  0.89689000  1.0
  C  C74  1  0.52683000  0.42585000  0.12694000  1.0
  C  C75  1  0.51806000  0.57493000  0.87450000  1.0
  C  C76  1  0.50468000  0.50225000  0.35347000  1.0
  C  C77  1  0.50313000  0.49750000  0.64686000  1.0
  C  C78  1  0.53074000  0.57428000  0.97573000  1.0
  C  C79  1  0.53595000  0.42795000  0.02598000  1.0
  C  C80  1  0.54047000  0.43000000  0.97399000  1.0
  C  C81  1  0.53741000  0.57294000  0.02784000  1.0
  C  C82  1  0.53379000  0.50280000  0.94998000  1.0
  C  C83  1  0.53590000  0.49960000  0.05177000  1.0
  C  C84  1  0.52020000  0.64308000  0.95004000  1.0
  C  C85  1  0.53031000  0.35814000  0.05150000  1.0
  C  C86  1  0.51308000  0.64349000  0.90027000  1.0
  C  C87  1  0.52501000  0.35687000  0.10111000  1.0
  C  C88  1  0.54368000  0.64097000  0.05536000  1.0
  C  C89  1  0.54967000  0.36293000  0.94667000  1.0
  C  C90  1  0.51760000  0.73912000  0.48830000  1.0
  C  C91  1  0.48224000  0.26103000  0.48990000  1.0
  C  C92  1  0.44266000  0.77982000  0.48497000  1.0
  C  C93  1  0.55598000  0.21897000  0.49532000  1.0
  C  C94  1  0.44501000  0.85978000  0.47943000  1.0
  C  C95  1  0.55322000  0.13895000  0.48972000  1.0
  C  C96  1  0.52351000  0.90065000  0.47729000  1.0
  C  C97  1  0.47570000  0.09951000  0.47832000  1.0
  C  C98  1  0.59851000  0.86008000  0.47948000  1.0
  C  C99  1  0.40189000  0.14129000  0.47264000  1.0
  C  C100  1  0.59554000  0.77974000  0.48501000  1.0
  C  C101  1  0.40522000  0.22163000  0.47834000  1.0
  C  C102  1  0.23682000  0.44236000  0.50880000  1.0
  C  C103  1  0.76251000  0.55007000  0.48239000  1.0
  C  C104  1  0.14857000  0.43919000  0.50722000  1.0
  C  C105  1  0.85071000  0.55524000  0.48457000  1.0
  C  C106  1  0.10927000  0.50590000  0.48951000  1.0
  C  C107  1  0.89084000  0.49739000  0.51165000  1.0
  C  C108  1  0.15818000  0.56968000  0.47355000  1.0
  C  C109  1  0.84271000  0.44019000  0.53516000  1.0
  C  C110  1  0.24521000  0.56762000  0.47788000  1.0
  C  C111  1  0.75552000  0.43992000  0.53017000  1.0
  C  C112  1  0.37303000  0.58249000  0.34264000  1.0
  C  C113  1  0.39161000  0.65322000  0.36637000  1.0
  C  C114  1  0.32699000  0.70056000  0.37955000  1.0
  C  C115  1  0.24269000  0.67734000  0.36994000  1.0
  C  C116  1  0.22349000  0.60639000  0.34703000  1.0
  C  C117  1  0.28827000  0.55965000  0.33310000  1.0
  C  C118  1  0.37765000  0.40060000  0.65117000  1.0
  C  C119  1  0.40056000  0.34174000  0.62005000  1.0
  C  C120  1  0.34012000  0.28815000  0.60117000  1.0
  C  C121  1  0.25554000  0.29259000  0.61294000  1.0
  C  C122  1  0.23210000  0.35081000  0.64402000  1.0
  C  C123  1  0.29267000  0.40415000  0.66313000  1.0
  C  C124  1  0.89527000  0.62115000  0.46072000  1.0
  C  C125  1  0.94554000  0.67567000  0.48730000  1.0
  C  C126  1  0.98575000  0.73849000  0.46484000  1.0
  C  C127  1  0.97634000  0.74756000  0.41546000  1.0
  C  C128  1  0.92554000  0.69412000  0.38887000  1.0
  C  C129  1  0.88479000  0.63146000  0.41137000  1.0
  C  C130  1  0.10292000  0.36550000  0.52030000  1.0
  C  C131  1  0.06167000  0.35696000  0.56356000  1.0
  C  C132  1  0.02231000  0.28590000  0.57544000  1.0
  C  C133  1  0.02271000  0.22288000  0.54401000  1.0
  C  C134  1  0.06339000  0.23096000  0.50076000  1.0
  C  C135  1  0.10381000  0.30170000  0.48917000  1.0
  N  N136  1  0.52272000  0.49479000  0.20352000  1.0
  N  N137  1  0.51718000  0.50582000  0.79765000  1.0
  N  N138  1  0.53372000  0.98236000  0.47579000  1.0
  N  N139  1  0.46532000  0.01797000  0.47449000  1.0
  N  N140  1  0.28347000  0.50485000  0.49530000  1.0
  N  N141  1  0.71666000  0.49430000  0.50426000  1.0
  N  N142  1  0.02109000  0.50932000  0.48253000  1.0
  N  N143  1  0.97937000  0.49452000  0.51897000  1.0
  O  O144  1  0.58276000  0.61879000  0.49977000  1.0
  O  O145  1  0.41740000  0.38207000  0.49563000  1.0
  O  O146  1  0.43979000  0.62025000  0.49722000  1.0
  O  O147  1  0.56016000  0.37987000  0.50185000  1.0
  O  O148  1  0.57343000  0.49997000  0.42919000  1.0
  O  O149  1  0.43117000  0.50012000  0.57123000  1.0
  O  O150  1  0.43055000  0.50225000  0.42570000  1.0
  O  O151  1  0.57414000  0.49874000  0.57430000  1.0
  O  O152  1  0.54299000  0.62811000  0.20552000  1.0
  O  O153  1  0.54391000  0.37526000  0.79651000  1.0
  O  O154  1  0.49540000  0.63713000  0.79971000  1.0
  O  O155  1  0.50952000  0.36117000  0.20119000  1.0
