# generated using pymatgen
data_NaBH16C8S2(N2O)2
_symmetry_space_group_name_H-M   'P 1'
_cell_length_a   6.23329000
_cell_length_b   10.10670000
_cell_length_c   22.89890000
_cell_angle_alpha   90.00000000
_cell_angle_beta   90.00000000
_cell_angle_gamma   93.26130000
_symmetry_Int_Tables_number   1
_chemical_formula_structural   NaBH16C8S2(N2O)2
_chemical_formula_sum   'Na4 B4 H64 C32 S8 N16 O8'
_cell_volume   1440.24841085
_cell_formula_units_Z   4
loop_
 _symmetry_equiv_pos_site_id
 _symmetry_equiv_pos_as_xyz
  1  'x, y, z'
loop_
 _atom_site_type_symbol
 _atom_site_label
 _atom_site_symmetry_multiplicity
 _atom_site_fract_x
 _atom_site_fract_y
 _atom_site_fract_z
 _atom_site_occupancy
  Na  Na0  1  0.82518000  0.27329000  0.21102000  1.0
  Na  Na1  1  0.67482000  0.72671000  0.71103000  1.0
  Na  Na2  1  0.17483000  0.72671000  0.78898000  1.0
  Na  Na3  1  0.32518000  0.27329000  0.28898000  1.0
  B  B4  1  0.50807000  0.37314000  0.11584000  1.0
  B  B5  1  0.99191000  0.62685000  0.61585000  1.0
  B  B6  1  0.49194000  0.62687000  0.88415000  1.0
  B  B7  1  0.00807000  0.37314000  0.38416000  1.0
  H  H8  1  0.66222000  0.00759000  0.93020000  1.0
  H  H9  1  0.83779000  0.99241000  0.43020000  1.0
  H  H10  1  0.33778000  0.99242000  0.06980000  1.0
  H  H11  1  0.16221000  0.00758000  0.56980000  1.0
  H  H12  1  0.77405000  0.96316000  0.99891000  1.0
  H  H13  1  0.72595000  0.03683000  0.49892000  1.0
  H  H14  1  0.22595000  0.03685000  0.00108000  1.0
  H  H15  1  0.27404000  0.96315000  0.50108000  1.0
  H  H16  1  0.91919000  0.07795000  0.95276000  1.0
  H  H17  1  0.58081000  0.92205000  0.45276000  1.0
  H  H18  1  0.08082000  0.92206000  0.04724000  1.0
  H  H19  1  0.41918000  0.07794000  0.54724000  1.0
  H  H20  1  0.48445000  0.22319000  0.91979000  1.0
  H  H21  1  0.01556000  0.77681000  0.41979000  1.0
  H  H22  1  0.51556000  0.77682000  0.08021000  1.0
  H  H23  1  0.98443000  0.22317000  0.58021000  1.0
  H  H24  1  0.33805000  0.39972000  0.00208000  1.0
  H  H25  1  0.16194000  0.60028000  0.50209000  1.0
  H  H26  1  0.66196000  0.60030000  0.99792000  1.0
  H  H27  1  0.83804000  0.39971000  0.49792000  1.0
  H  H28  1  0.16952000  0.62616000  0.08312000  1.0
  H  H29  1  0.33046000  0.37382000  0.58312000  1.0
  H  H30  1  0.83048000  0.37385000  0.91688000  1.0
  H  H31  1  0.66953000  0.62616000  0.41688000  1.0
  H  H32  1  0.85356000  0.86817000  0.14948000  1.0
  H  H33  1  0.64643000  0.13182000  0.64948000  1.0
  H  H34  1  0.14644000  0.13184000  0.85053000  1.0
  H  H35  1  0.35356000  0.86817000  0.35052000  1.0
  H  H36  1  0.12528000  0.81738000  0.14534000  1.0
  H  H37  1  0.37470000  0.18261000  0.64534000  1.0
  H  H38  1  0.87472000  0.18263000  0.85466000  1.0
  H  H39  1  0.62528000  0.81738000  0.35466000  1.0
  H  H40  1  0.96946000  0.78018000  0.20921000  1.0
  H  H41  1  0.53053000  0.21981000  0.70922000  1.0
  H  H42  1  0.03054000  0.21982000  0.79079000  1.0
  H  H43  1  0.46946000  0.78018000  0.29079000  1.0
  H  H44  1  0.92785000  0.39398000  0.05943000  1.0
  H  H45  1  0.57214000  0.60601000  0.55943000  1.0
  H  H46  1  0.07216000  0.60604000  0.94056000  1.0
  H  H47  1  0.42786000  0.39398000  0.44057000  1.0
  H  H48  1  0.50978000  0.30257000  0.15918000  1.0
  H  H49  1  0.99021000  0.69742000  0.65919000  1.0
  H  H50  1  0.49025000  0.69744000  0.84081000  1.0
  H  H51  1  0.00978000  0.30257000  0.34082000  1.0
  H  H52  1  0.34072000  0.42750000  0.11292000  1.0
  H  H53  1  0.15927000  0.57249000  0.61292000  1.0
  H  H54  1  0.65929000  0.57251000  0.88708000  1.0
  H  H55  1  0.84072000  0.42750000  0.38708000  1.0
  H  H56  1  0.08004000  0.49606000  0.24983000  1.0
  H  H57  1  0.41996000  0.50393000  0.74983000  1.0
  H  H58  1  0.91996000  0.50393000  0.75017000  1.0
  H  H59  1  0.58004000  0.49606000  0.25017000  1.0
  H  H60  1  0.22647000  0.46110000  0.19761000  1.0
  H  H61  1  0.27353000  0.53891000  0.69761000  1.0
  H  H62  1  0.77353000  0.53891000  0.80239000  1.0
  H  H63  1  0.72647000  0.46109000  0.30239000  1.0
  H  H64  1  0.66811000  0.11701000  0.32097000  1.0
  H  H65  1  0.83189000  0.88300000  0.82097000  1.0
  H  H66  1  0.33191000  0.88299000  0.67903000  1.0
  H  H67  1  0.16811000  0.11701000  0.17903000  1.0
  H  H68  1  0.59472000  0.02705000  0.26869000  1.0
  H  H69  1  0.90529000  0.97295000  0.76869000  1.0
  H  H70  1  0.40529000  0.97295000  0.73132000  1.0
  H  H71  1  0.09472000  0.02705000  0.23131000  1.0
  C  C72  1  0.69974000  0.59755000  0.14746000  1.0
  C  C73  1  0.80024000  0.40244000  0.64746000  1.0
  C  C74  1  0.30026000  0.40246000  0.85254000  1.0
  C  C75  1  0.19974000  0.59755000  0.35254000  1.0
  C  C76  1  0.65992000  0.18384000  0.05353000  1.0
  C  C77  1  0.84008000  0.81616000  0.55353000  1.0
  C  C78  1  0.34009000  0.81617000  0.94646000  1.0
  C  C79  1  0.15992000  0.18383000  0.44647000  1.0
  C  C80  1  0.75814000  0.04394000  0.96765000  1.0
  C  C81  1  0.74186000  0.95606000  0.46765000  1.0
  C  C82  1  0.24186000  0.95607000  0.03235000  1.0
  C  C83  1  0.25813000  0.04393000  0.53235000  1.0
  C  C84  1  0.51506000  0.23317000  0.96625000  1.0
  C  C85  1  0.98494000  0.76682000  0.46626000  1.0
  C  C86  1  0.48495000  0.76683000  0.03374000  1.0
  C  C87  1  0.01505000  0.23317000  0.53375000  1.0
  C  C88  1  0.44423000  0.31926000  0.00683000  1.0
  C  C89  1  0.05577000  0.68074000  0.50683000  1.0
  C  C90  1  0.55579000  0.68075000  0.99317000  1.0
  C  C91  1  0.94422000  0.31925000  0.49317000  1.0
  C  C92  1  0.00969000  0.59261000  0.09710000  1.0
  C  C93  1  0.49030000  0.40738000  0.59710000  1.0
  C  C94  1  0.99032000  0.40740000  0.90290000  1.0
  C  C95  1  0.50969000  0.59261000  0.40290000  1.0
  C  C96  1  0.96299000  0.79111000  0.16146000  1.0
  C  C97  1  0.53700000  0.20888000  0.66146000  1.0
  C  C98  1  0.03701000  0.20890000  0.83855000  1.0
  C  C99  1  0.46299000  0.79111000  0.33854000  1.0
  C  C100  1  0.88972000  0.47832000  0.08585000  1.0
  C  C101  1  0.61027000  0.52167000  0.58585000  1.0
  C  C102  1  0.11029000  0.52170000  0.91415000  1.0
  C  C103  1  0.38972000  0.47832000  0.41415000  1.0
  S  S104  1  0.80079000  0.10649000  0.10563000  1.0
  S  S105  1  0.69920000  0.89351000  0.60564000  1.0
  S  S106  1  0.19922000  0.89352000  0.89436000  1.0
  S  S107  1  0.30080000  0.10649000  0.39437000  1.0
  S  S108  1  0.50244000  0.65286000  0.19097000  1.0
  S  S109  1  0.99754000  0.34713000  0.69097000  1.0
  S  S110  1  0.49755000  0.34714000  0.80903000  1.0
  S  S111  1  0.00245000  0.65286000  0.30903000  1.0
  N  N112  1  0.64794000  0.14977000  0.99539000  1.0
  N  N113  1  0.85206000  0.85022000  0.49539000  1.0
  N  N114  1  0.35207000  0.85024000  0.00460000  1.0
  N  N115  1  0.14793000  0.14976000  0.50460000  1.0
  N  N116  1  0.89181000  0.66546000  0.13538000  1.0
  N  N117  1  0.60818000  0.33453000  0.63538000  1.0
  N  N118  1  0.10820000  0.33455000  0.86462000  1.0
  N  N119  1  0.39181000  0.66546000  0.36462000  1.0
  N  N120  1  0.53285000  0.28900000  0.06036000  1.0
  N  N121  1  0.96714000  0.71100000  0.56037000  1.0
  N  N122  1  0.46717000  0.71101000  0.93963000  1.0
  N  N123  1  0.03285000  0.28900000  0.43964000  1.0
  N  N124  1  0.69870000  0.48135000  0.11695000  1.0
  N  N125  1  0.80128000  0.51864000  0.61695000  1.0
  N  N126  1  0.30130000  0.51866000  0.88305000  1.0
  N  N127  1  0.19870000  0.48135000  0.38305000  1.0
  O  O128  1  0.64512000  0.11705000  0.27875000  1.0
  O  O129  1  0.85489000  0.88296000  0.77874000  1.0
  O  O130  1  0.35489000  0.88295000  0.72126000  1.0
  O  O131  1  0.14512000  0.11705000  0.22125000  1.0
  O  O132  1  0.12592000  0.41935000  0.22626000  1.0
  O  O133  1  0.37408000  0.58065000  0.72626000  1.0
  O  O134  1  0.87409000  0.58065000  0.77374000  1.0
  O  O135  1  0.62592000  0.41935000  0.27374000  1.0
