# generated using pymatgen
data_BiH2C8NO6
_symmetry_space_group_name_H-M   'P 1'
_cell_length_a   10.07020000
_cell_length_b   12.27210000
_cell_length_c   13.44050000
_cell_angle_alpha   90.00020000
_cell_angle_beta   89.99960000
_cell_angle_gamma   89.99980000
_symmetry_Int_Tables_number   1
_chemical_formula_structural   BiH2C8NO6
_chemical_formula_sum   'Bi8 H16 C64 N8 O48'
_cell_volume   1661.01061027
_cell_formula_units_Z   8
loop_
 _symmetry_equiv_pos_site_id
 _symmetry_equiv_pos_as_xyz
  1  'x, y, z'
loop_
 _atom_site_type_symbol
 _atom_site_label
 _atom_site_symmetry_multiplicity
 _atom_site_fract_x
 _atom_site_fract_y
 _atom_site_fract_z
 _atom_site_occupancy
  Bi  Bi0  1  0.21858000  0.21090000  0.57622000  1.0
  Bi  Bi1  1  0.71857000  0.28910000  0.92379000  1.0
  Bi  Bi2  1  0.78143000  0.71090000  0.92378000  1.0
  Bi  Bi3  1  0.28142000  0.78911000  0.57622000  1.0
  Bi  Bi4  1  0.78143000  0.78910000  0.42379000  1.0
  Bi  Bi5  1  0.28142000  0.71089000  0.07621000  1.0
  Bi  Bi6  1  0.21858000  0.28910000  0.07622000  1.0
  Bi  Bi7  1  0.71858000  0.21089000  0.42378000  1.0
  H  H8  1  0.62047000  0.49478000  0.64037000  1.0
  H  H9  1  0.12047000  0.00522000  0.85962000  1.0
  H  H10  1  0.37953000  0.99478000  0.85962000  1.0
  H  H11  1  0.87954000  0.50522000  0.64038000  1.0
  H  H12  1  0.37953000  0.50522000  0.35962000  1.0
  H  H13  1  0.87953000  0.99478000  0.14038000  1.0
  H  H14  1  0.62047000  0.00522000  0.14038000  1.0
  H  H15  1  0.12047000  0.49478000  0.35963000  1.0
  H  H16  1  0.36889000  0.43915000  0.89559000  1.0
  H  H17  1  0.86888000  0.06084000  0.60442000  1.0
  H  H18  1  0.63111000  0.93916000  0.60441000  1.0
  H  H19  1  0.13112000  0.56084000  0.89559000  1.0
  H  H20  1  0.63111000  0.56085000  0.10441000  1.0
  H  H21  1  0.13112000  0.93916000  0.39558000  1.0
  H  H22  1  0.36889000  0.06085000  0.39558000  1.0
  H  H23  1  0.86889000  0.43915000  0.10442000  1.0
  C  C24  1  0.48926000  0.34233000  0.52157000  1.0
  C  C25  1  0.98926000  0.15767000  0.97843000  1.0
  C  C26  1  0.51074000  0.84233000  0.97843000  1.0
  C  C27  1  0.01074000  0.65767000  0.52157000  1.0
  C  C28  1  0.51073000  0.65767000  0.47843000  1.0
  C  C29  1  0.01074000  0.84233000  0.02157000  1.0
  C  C30  1  0.48927000  0.15767000  0.02157000  1.0
  C  C31  1  0.98926000  0.34233000  0.47844000  1.0
  C  C32  1  0.45158000  0.38895000  0.62082000  1.0
  C  C33  1  0.95157000  0.11105000  0.87918000  1.0
  C  C34  1  0.54842000  0.88895000  0.87918000  1.0
  C  C35  1  0.04843000  0.61105000  0.62082000  1.0
  C  C36  1  0.54842000  0.61105000  0.37918000  1.0
  C  C37  1  0.04843000  0.88895000  0.12082000  1.0
  C  C38  1  0.45157000  0.11105000  0.12082000  1.0
  C  C39  1  0.95158000  0.38895000  0.37918000  1.0
  C  C40  1  0.53255000  0.45965000  0.67464000  1.0
  C  C41  1  0.03254000  0.04035000  0.82536000  1.0
  C  C42  1  0.46745000  0.95965000  0.82536000  1.0
  C  C43  1  0.96746000  0.54035000  0.67464000  1.0
  C  C44  1  0.46745000  0.54035000  0.32536000  1.0
  C  C45  1  0.96746000  0.95965000  0.17464000  1.0
  C  C46  1  0.53254000  0.04035000  0.17464000  1.0
  C  C47  1  0.03254000  0.45965000  0.32536000  1.0
  C  C48  1  0.50272000  0.47721000  0.77473000  1.0
  C  C49  1  0.00272000  0.02280000  0.72527000  1.0
  C  C50  1  0.49728000  0.97721000  0.72527000  1.0
  C  C51  1  0.99729000  0.52279000  0.77473000  1.0
  C  C52  1  0.49728000  0.52279000  0.22527000  1.0
  C  C53  1  0.99728000  0.97721000  0.27473000  1.0
  C  C54  1  0.50272000  0.02279000  0.27473000  1.0
  C  C55  1  0.00272000  0.47720000  0.22528000  1.0
  C  C56  1  0.59493000  0.54008000  0.84100000  1.0
  C  C57  1  0.09492000  0.95993000  0.65900000  1.0
  C  C58  1  0.40507000  0.04008000  0.65900000  1.0
  C  C59  1  0.90508000  0.45992000  0.84100000  1.0
  C  C60  1  0.40507000  0.45992000  0.15900000  1.0
  C  C61  1  0.90508000  0.04007000  0.34100000  1.0
  C  C62  1  0.59492000  0.95993000  0.34100000  1.0
  C  C63  1  0.09492000  0.54007000  0.15901000  1.0
  C  C64  1  0.39088000  0.42804000  0.81695000  1.0
  C  C65  1  0.89088000  0.07196000  0.68305000  1.0
  C  C66  1  0.60912000  0.92804000  0.68305000  1.0
  C  C67  1  0.10913000  0.57196000  0.81695000  1.0
  C  C68  1  0.60912000  0.57196000  0.18305000  1.0
  C  C69  1  0.10913000  0.92804000  0.31695000  1.0
  C  C70  1  0.39088000  0.07196000  0.31695000  1.0
  C  C71  1  0.89088000  0.42804000  0.18305000  1.0
  C  C72  1  0.30933000  0.36495000  0.75632000  1.0
  C  C73  1  0.80932000  0.13506000  0.74369000  1.0
  C  C74  1  0.69067000  0.86495000  0.74368000  1.0
  C  C75  1  0.19068000  0.63506000  0.75631000  1.0
  C  C76  1  0.69067000  0.63505000  0.24369000  1.0
  C  C77  1  0.19068000  0.86495000  0.25631000  1.0
  C  C78  1  0.30933000  0.13505000  0.25631000  1.0
  C  C79  1  0.80933000  0.36495000  0.24369000  1.0
  C  C80  1  0.18412000  0.30976000  0.79213000  1.0
  C  C81  1  0.68412000  0.19024000  0.70787000  1.0
  C  C82  1  0.81588000  0.80976000  0.70786000  1.0
  C  C83  1  0.31588000  0.69024000  0.79213000  1.0
  C  C84  1  0.81588000  0.69024000  0.20787000  1.0
  C  C85  1  0.31588000  0.80976000  0.29214000  1.0
  C  C86  1  0.18412000  0.19024000  0.29214000  1.0
  C  C87  1  0.68412000  0.30976000  0.20786000  1.0
  N  N88  1  0.34146000  0.34700000  0.66108000  1.0
  N  N89  1  0.84146000  0.15301000  0.83892000  1.0
  N  N90  1  0.65854000  0.84700000  0.83892000  1.0
  N  N91  1  0.15854000  0.65300000  0.66108000  1.0
  N  N92  1  0.65854000  0.65300000  0.33892000  1.0
  N  N93  1  0.15854000  0.84699000  0.16108000  1.0
  N  N94  1  0.34146000  0.15300000  0.16108000  1.0
  N  N95  1  0.84146000  0.34700000  0.33892000  1.0
  O  O96  1  0.41330000  0.26940000  0.48441000  1.0
  O  O97  1  0.91330000  0.23060000  0.01559000  1.0
  O  O98  1  0.58670000  0.76940000  0.01559000  1.0
  O  O99  1  0.08669000  0.73060000  0.48441000  1.0
  O  O100  1  0.58669000  0.73060000  0.51559000  1.0
  O  O101  1  0.08669000  0.76940000  0.98440000  1.0
  O  O102  1  0.41331000  0.23060000  0.98441000  1.0
  O  O103  1  0.91330000  0.26940000  0.51559000  1.0
  O  O104  1  0.59868000  0.37255000  0.48349000  1.0
  O  O105  1  0.09868000  0.12745000  0.01651000  1.0
  O  O106  1  0.40132000  0.87255000  0.01651000  1.0
  O  O107  1  0.90132000  0.62745000  0.48349000  1.0
  O  O108  1  0.40132000  0.62745000  0.51650000  1.0
  O  O109  1  0.90132000  0.87255000  0.98349000  1.0
  O  O110  1  0.59868000  0.12745000  0.98349000  1.0
  O  O111  1  0.09867000  0.37255000  0.51651000  1.0
  O  O112  1  0.65504000  0.62187000  0.80150000  1.0
  O  O113  1  0.15504000  0.87813000  0.69850000  1.0
  O  O114  1  0.34496000  0.12187000  0.69849000  1.0
  O  O115  1  0.84496000  0.37813000  0.80151000  1.0
  O  O116  1  0.34496000  0.37813000  0.19849000  1.0
  O  O117  1  0.84496000  0.12187000  0.30151000  1.0
  O  O118  1  0.65503000  0.87813000  0.30151000  1.0
  O  O119  1  0.15504000  0.62187000  0.19850000  1.0
  O  O120  1  0.61069000  0.50800000  0.92898000  1.0
  O  O121  1  0.11069000  0.99200000  0.57102000  1.0
  O  O122  1  0.38931000  0.00800000  0.57102000  1.0
  O  O123  1  0.88932000  0.49200000  0.92898000  1.0
  O  O124  1  0.38931000  0.49200000  0.07102000  1.0
  O  O125  1  0.88931000  0.00800000  0.42898000  1.0
  O  O126  1  0.61069000  0.99200000  0.42898000  1.0
  O  O127  1  0.11069000  0.50800000  0.07102000  1.0
  O  O128  1  0.14950000  0.32136000  0.88079000  1.0
  O  O129  1  0.64950000  0.17864000  0.61921000  1.0
  O  O130  1  0.85050000  0.82136000  0.61921000  1.0
  O  O131  1  0.35050000  0.67864000  0.88079000  1.0
  O  O132  1  0.85050000  0.67864000  0.11921000  1.0
  O  O133  1  0.35050000  0.82136000  0.38078000  1.0
  O  O134  1  0.14950000  0.17864000  0.38078000  1.0
  O  O135  1  0.64950000  0.32136000  0.11922000  1.0
  O  O136  1  0.11840000  0.25555000  0.72631000  1.0
  O  O137  1  0.61840000  0.24446000  0.77369000  1.0
  O  O138  1  0.88160000  0.75555000  0.77369000  1.0
  O  O139  1  0.38161000  0.74445000  0.72630000  1.0
  O  O140  1  0.88160000  0.74445000  0.27369000  1.0
  O  O141  1  0.38160000  0.75554000  0.22630000  1.0
  O  O142  1  0.11839000  0.24446000  0.22631000  1.0
  O  O143  1  0.61839000  0.25555000  0.27369000  1.0
