# generated using pymatgen
data_ZnPH9C11O3
_symmetry_space_group_name_H-M   'P 1'
_cell_length_a   5.14497000
_cell_length_b   10.37140000
_cell_length_c   19.46220000
_cell_angle_alpha   91.67600000
_cell_angle_beta   89.99980000
_cell_angle_gamma   89.99930000
_symmetry_Int_Tables_number   1
_chemical_formula_structural   ZnPH9C11O3
_chemical_formula_sum   'Zn4 P4 H36 C44 O12'
_cell_volume   1038.06926053
_cell_formula_units_Z   4
loop_
 _symmetry_equiv_pos_site_id
 _symmetry_equiv_pos_as_xyz
  1  'x, y, z'
loop_
 _atom_site_type_symbol
 _atom_site_label
 _atom_site_symmetry_multiplicity
 _atom_site_fract_x
 _atom_site_fract_y
 _atom_site_fract_z
 _atom_site_occupancy
  Zn  Zn0  1  0.22266000  0.64640000  0.50378000  1.0
  Zn  Zn1  1  0.72266000  0.85360000  0.49622000  1.0
  Zn  Zn2  1  0.77733000  0.35360000  0.49622000  1.0
  Zn  Zn3  1  0.27733000  0.14640000  0.50378000  1.0
  P  P4  1  0.25813000  0.40763000  0.58919000  1.0
  P  P5  1  0.75814000  0.09236000  0.41080000  1.0
  P  P6  1  0.74186000  0.59237000  0.41081000  1.0
  P  P7  1  0.24185000  0.90763000  0.58919000  1.0
  H  H8  1  0.07471000  0.25861000  0.78738000  1.0
  H  H9  1  0.57471000  0.24139000  0.21262000  1.0
  H  H10  1  0.92529000  0.74139000  0.21262000  1.0
  H  H11  1  0.42528000  0.75860000  0.78738000  1.0
  H  H12  1  0.02258000  0.38473000  0.69223000  1.0
  H  H13  1  0.52258000  0.11525000  0.30777000  1.0
  H  H14  1  0.97742000  0.61526000  0.30777000  1.0
  H  H15  1  0.47741000  0.88474000  0.69223000  1.0
  H  H16  1  0.24964000  0.25991000  0.67871000  1.0
  H  H17  1  0.74963000  0.24009000  0.32128000  1.0
  H  H18  1  0.75037000  0.74009000  0.32128000  1.0
  H  H19  1  0.25036000  0.75991000  0.67872000  1.0
  H  H20  1  0.60190000  0.55446000  0.65850000  1.0
  H  H21  1  0.10193000  0.94553000  0.34149000  1.0
  H  H22  1  0.39810000  0.44554000  0.34149000  1.0
  H  H23  1  0.89807000  0.05446000  0.65851000  1.0
  H  H24  1  0.91006000  0.64704000  0.74292000  1.0
  H  H25  1  0.41010000  0.85297000  0.25707000  1.0
  H  H26  1  0.08992000  0.35297000  0.25707000  1.0
  H  H27  1  0.58991000  0.14703000  0.74294000  1.0
  H  H28  1  0.07198000  0.19307000  0.90633000  1.0
  H  H29  1  0.57196000  0.30693000  0.09367000  1.0
  H  H30  1  0.92803000  0.80694000  0.09368000  1.0
  H  H31  1  0.42803000  0.69305000  0.90633000  1.0
  H  H32  1  0.91274000  0.57487000  0.86308000  1.0
  H  H33  1  0.41278000  0.92515000  0.13691000  1.0
  H  H34  1  0.08724000  0.42515000  0.13691000  1.0
  H  H35  1  0.58724000  0.07485000  0.86309000  1.0
  H  H36  1  0.72238000  0.44336000  0.95317000  1.0
  H  H37  1  0.22239000  0.05664000  0.04682000  1.0
  H  H38  1  0.27764000  0.55665000  0.04682000  1.0
  H  H39  1  0.77763000  0.94335000  0.95318000  1.0
  H  H40  1  0.39357000  0.28429000  0.99100000  1.0
  H  H41  1  0.89356000  0.21572000  0.00900000  1.0
  H  H42  1  0.60645000  0.71572000  0.00900000  1.0
  H  H43  1  0.10645000  0.78427000  0.99101000  1.0
  C  C44  1  0.41040000  0.43045000  0.72930000  1.0
  C  C45  1  0.91041000  0.06954000  0.27070000  1.0
  C  C46  1  0.58959000  0.56955000  0.27070000  1.0
  C  C47  1  0.08958000  0.93045000  0.72930000  1.0
  C  C48  1  0.58616000  0.44413000  0.84796000  1.0
  C  C49  1  0.08618000  0.05588000  0.15204000  1.0
  C  C50  1  0.41384000  0.55588000  0.15204000  1.0
  C  C51  1  0.91383000  0.94412000  0.84797000  1.0
  C  C52  1  0.21885000  0.29967000  0.82264000  1.0
  C  C53  1  0.71885000  0.20033000  0.17736000  1.0
  C  C54  1  0.78116000  0.70034000  0.17736000  1.0
  C  C55  1  0.28114000  0.79966000  0.82264000  1.0
  C  C56  1  0.40228000  0.39077000  0.79926000  1.0
  C  C57  1  0.90229000  0.10924000  0.20074000  1.0
  C  C58  1  0.59771000  0.60924000  0.20074000  1.0
  C  C59  1  0.09770000  0.89075000  0.79926000  1.0
  C  C60  1  0.22670000  0.36562000  0.67814000  1.0
  C  C61  1  0.72670000  0.13437000  0.32186000  1.0
  C  C62  1  0.77331000  0.63438000  0.32186000  1.0
  C  C63  1  0.27329000  0.86562000  0.67814000  1.0
  C  C64  1  0.58944000  0.52340000  0.71136000  1.0
  C  C65  1  0.08945000  0.97659000  0.28864000  1.0
  C  C66  1  0.41056000  0.47659000  0.28864000  1.0
  C  C67  1  0.91054000  0.02341000  0.71137000  1.0
  C  C68  1  0.76878000  0.57621000  0.75961000  1.0
  C  C69  1  0.26881000  0.92380000  0.24039000  1.0
  C  C70  1  0.23120000  0.42380000  0.24039000  1.0
  C  C71  1  0.73119000  0.07620000  0.75962000  1.0
  C  C72  1  0.21622000  0.26288000  0.89016000  1.0
  C  C73  1  0.71621000  0.23712000  0.10984000  1.0
  C  C74  1  0.78379000  0.73713000  0.10984000  1.0
  C  C75  1  0.28379000  0.76287000  0.89016000  1.0
  C  C76  1  0.77032000  0.53640000  0.82640000  1.0
  C  C77  1  0.27036000  0.96361000  0.17360000  1.0
  C  C78  1  0.22966000  0.46361000  0.17359000  1.0
  C  C79  1  0.72964000  0.03639000  0.82641000  1.0
  C  C80  1  0.57986000  0.40311000  0.91691000  1.0
  C  C81  1  0.07988000  0.09689000  0.08309000  1.0
  C  C82  1  0.42013000  0.59690000  0.08309000  1.0
  C  C83  1  0.92014000  0.90311000  0.91691000  1.0
  C  C84  1  0.39816000  0.31468000  0.93786000  1.0
  C  C85  1  0.89817000  0.18533000  0.06214000  1.0
  C  C86  1  0.60185000  0.68534000  0.06214000  1.0
  C  C87  1  0.10186000  0.81466000  0.93786000  1.0
  O  O88  1  0.10146000  0.30286000  0.54532000  1.0
  O  O89  1  0.60147000  0.19713000  0.45468000  1.0
  O  O90  1  0.89853000  0.69714000  0.45468000  1.0
  O  O91  1  0.39853000  0.80286000  0.54532000  1.0
  O  O92  1  0.54474000  0.40092000  0.56947000  1.0
  O  O93  1  0.04475000  0.09908000  0.43053000  1.0
  O  O94  1  0.45525000  0.59909000  0.43053000  1.0
  O  O95  1  0.95524000  0.90092000  0.56947000  1.0
  O  O96  1  0.13066000  0.53994000  0.57967000  1.0
  O  O97  1  0.63068000  0.96005000  0.42033000  1.0
  O  O98  1  0.86933000  0.46005000  0.42033000  1.0
  O  O99  1  0.36931000  0.03994000  0.57967000  1.0
