# generated using pymatgen
data_CdH14C16N6O5
_symmetry_space_group_name_H-M   'P 1'
_cell_length_a   8.02247000
_cell_length_b   10.50470000
_cell_length_c   10.50470000
_cell_angle_alpha   99.25230000
_cell_angle_beta   93.51740000
_cell_angle_gamma   93.51730000
_symmetry_Int_Tables_number   1
_chemical_formula_structural   CdH14C16N6O5
_chemical_formula_sum   'Cd2 H28 C32 N12 O10'
_cell_volume   869.82424882
_cell_formula_units_Z   2
loop_
 _symmetry_equiv_pos_site_id
 _symmetry_equiv_pos_as_xyz
  1  'x, y, z'
loop_
 _atom_site_type_symbol
 _atom_site_label
 _atom_site_symmetry_multiplicity
 _atom_site_fract_x
 _atom_site_fract_y
 _atom_site_fract_z
 _atom_site_occupancy
  Cd  Cd0  1  0.25000000  0.12168000  0.87831000  1.0
  Cd  Cd1  1  0.75000000  0.87832000  0.12169000  1.0
  H  H2  1  0.32135000  0.90773000  0.01457000  1.0
  H  H3  1  0.17865000  0.98543000  0.09227000  1.0
  H  H4  1  0.67865000  0.09227000  0.98543000  1.0
  H  H5  1  0.82135000  0.01457000  0.90773000  1.0
  H  H6  1  0.69869000  0.41051000  0.83378000  1.0
  H  H7  1  0.80131000  0.16622000  0.58948000  1.0
  H  H8  1  0.30131000  0.58949000  0.16622000  1.0
  H  H9  1  0.19869000  0.83378000  0.41052000  1.0
  H  H10  1  0.66051000  0.49548000  0.98880000  1.0
  H  H11  1  0.83949000  0.01120000  0.50452000  1.0
  H  H12  1  0.33950000  0.50452000  0.01120000  1.0
  H  H13  1  0.16051000  0.98880000  0.49548000  1.0
  H  H14  1  0.78473000  0.55121000  0.21468000  1.0
  H  H15  1  0.71527000  0.78532000  0.44878000  1.0
  H  H16  1  0.21527000  0.44878000  0.78532000  1.0
  H  H17  1  0.28473000  0.21468000  0.55122000  1.0
  H  H18  1  0.99344000  0.57496000  0.40568000  1.0
  H  H19  1  0.50657000  0.59432000  0.42504000  1.0
  H  H20  1  0.00657000  0.42504000  0.59432000  1.0
  H  H21  1  0.49343000  0.40568000  0.57496000  1.0
  H  H22  1  0.23218000  0.43575000  0.40660000  1.0
  H  H23  1  0.26783000  0.59340000  0.56425000  1.0
  H  H24  1  0.76783000  0.56426000  0.59340000  1.0
  H  H25  1  0.73217000  0.40660000  0.43575000  1.0
  H  H26  1  0.28341000  0.27608000  0.21335000  1.0
  H  H27  1  0.21660000  0.78664000  0.72393000  1.0
  H  H28  1  0.71660000  0.72393000  0.78665000  1.0
  H  H29  1  0.78340000  0.21335000  0.27607000  1.0
  C  C30  1  0.53353000  0.30487000  0.93951000  1.0
  C  C31  1  0.96647000  0.06049000  0.69513000  1.0
  C  C32  1  0.46647000  0.69513000  0.06049000  1.0
  C  C33  1  0.03353000  0.93951000  0.30487000  1.0
  C  C34  1  0.68427000  0.40054000  0.93479000  1.0
  C  C35  1  0.81573000  0.06521000  0.59946000  1.0
  C  C36  1  0.31573000  0.59945000  0.06521000  1.0
  C  C37  1  0.18427000  0.93479000  0.40055000  1.0
  C  C38  1  0.91979000  0.39855000  0.10900000  1.0
  C  C39  1  0.58022000  0.89100000  0.60145000  1.0
  C  C40  1  0.08022000  0.60145000  0.89100000  1.0
  C  C41  1  0.41978000  0.10900000  0.39855000  1.0
  C  C42  1  0.89049000  0.49086000  0.21584000  1.0
  C  C43  1  0.60952000  0.78416000  0.50914000  1.0
  C  C44  1  0.10951000  0.50914000  0.78416000  1.0
  C  C45  1  0.39048000  0.21584000  0.49086000  1.0
  C  C46  1  0.00746000  0.50243000  0.32097000  1.0
  C  C47  1  0.49255000  0.67904000  0.49757000  1.0
  C  C48  1  0.99254000  0.49758000  0.67903000  1.0
  C  C49  1  0.50745000  0.32096000  0.50242000  1.0
  C  C50  1  0.14553000  0.42439000  0.32103000  1.0
  C  C51  1  0.35448000  0.67896000  0.57561000  1.0
  C  C52  1  0.85447000  0.57561000  0.67896000  1.0
  C  C53  1  0.64552000  0.32103000  0.42439000  1.0
  C  C54  1  0.17555000  0.33435000  0.21461000  1.0
  C  C55  1  0.32446000  0.78539000  0.66565000  1.0
  C  C56  1  0.82445000  0.66565000  0.78539000  1.0
  C  C57  1  0.67555000  0.21461000  0.33435000  1.0
  C  C58  1  0.06055000  0.32347000  0.10668000  1.0
  C  C59  1  0.43945000  0.89332000  0.67653000  1.0
  C  C60  1  0.93944000  0.67653000  0.89332000  1.0
  C  C61  1  0.56055000  0.10668000  0.32347000  1.0
  N  N62  1  0.84025000  0.36210000  0.98813000  1.0
  N  N63  1  0.65974000  0.01187000  0.63790000  1.0
  N  N64  1  0.15975000  0.63789000  0.01187000  1.0
  N  N65  1  0.34025000  0.98813000  0.36210000  1.0
  N  N66  1  0.92379000  0.27311000  0.91626000  1.0
  N  N67  1  0.57621000  0.08374000  0.72689000  1.0
  N  N68  1  0.07621000  0.72689000  0.08374000  1.0
  N  N69  1  0.42379000  0.91626000  0.27311000  1.0
  N  N70  1  0.05574000  0.24939000  0.98579000  1.0
  N  N71  1  0.44427000  0.01420000  0.75061000  1.0
  N  N72  1  0.94426000  0.75061000  0.01421000  1.0
  N  N73  1  0.55573000  0.98579000  0.24939000  1.0
  O  O74  1  0.40164000  0.32599000  0.87454000  1.0
  O  O75  1  0.09836000  0.12547000  0.67400000  1.0
  O  O76  1  0.59836000  0.67400000  0.12546000  1.0
  O  O77  1  0.90164000  0.87453000  0.32600000  1.0
  O  O78  1  0.54436000  0.21434000  0.00471000  1.0
  O  O79  1  0.95563000  0.99530000  0.78566000  1.0
  O  O80  1  0.45564000  0.78566000  0.99529000  1.0
  O  O81  1  0.04436000  0.00470000  0.21434000  1.0
  O  O82  1  0.25000000  0.98185000  0.01815000  1.0
  O  O83  1  0.75000000  0.01815000  0.98185000  1.0
