# generated using pymatgen
data_CuH20C14(N4O5)2
_symmetry_space_group_name_H-M   'P 1'
_cell_length_a   7.89621000
_cell_length_b   8.26421000
_cell_length_c   9.23107678
_cell_angle_alpha   63.85190415
_cell_angle_beta   75.68572207
_cell_angle_gamma   94.92830000
_symmetry_Int_Tables_number   1
_chemical_formula_structural   CuH20C14(N4O5)2
_chemical_formula_sum   'Cu1 H20 C14 N8 O10'
_cell_volume   510.62744932
_cell_formula_units_Z   1
loop_
 _symmetry_equiv_pos_site_id
 _symmetry_equiv_pos_as_xyz
  1  'x, y, z'
loop_
 _atom_site_type_symbol
 _atom_site_label
 _atom_site_symmetry_multiplicity
 _atom_site_fract_x
 _atom_site_fract_y
 _atom_site_fract_z
 _atom_site_occupancy
  Cu  Cu0  1  0.00001000  0.00000000  0.99999000  1.0
  H  H1  1  0.62835000  0.31921000  0.32685000  1.0
  H  H2  1  0.37166000  0.68081000  0.67313000  1.0
  H  H3  1  0.86012000  0.21460000  0.29589000  1.0
  H  H4  1  0.13988000  0.78540000  0.70412000  1.0
  H  H5  1  0.98912000  0.36597000  0.75162000  1.0
  H  H6  1  0.01088000  0.63402000  0.24838000  1.0
  H  H7  1  0.16092000  0.57927000  0.44128000  1.0
  H  H8  1  0.83907000  0.42074000  0.55872000  1.0
  H  H9  1  0.43376000  0.50700000  0.30345000  1.0
  H  H10  1  0.56625000  0.49302000  0.69653000  1.0
  H  H11  1  0.34517000  0.01731000  0.78365000  1.0
  H  H12  1  0.65484000  0.98271000  0.21633000  1.0
  H  H13  1  0.00592000  0.12544000  0.58086000  1.0
  H  H14  1  0.99409000  0.87456000  0.41914000  1.0
  H  H15  1  0.12409000  0.18954000  0.36675000  1.0
  H  H16  1  0.87592000  0.81045000  0.63324000  1.0
  H  H17  1  0.78883000  0.76634000  0.96758000  1.0
  H  H18  1  0.21117000  0.23366000  0.03243000  1.0
  H  H19  1  0.77841000  0.96757000  0.82157000  1.0
  H  H20  1  0.22159000  0.03243000  0.17844000  1.0
  C  C21  1  0.10822000  0.33865000  0.68455000  1.0
  C  C22  1  0.89177000  0.66133000  0.31547000  1.0
  C  C23  1  0.20489000  0.45630000  0.51406000  1.0
  C  C24  1  0.79512000  0.54370000  0.48593000  1.0
  C  C25  1  0.35802000  0.41689000  0.43740000  1.0
  C  C26  1  0.64200000  0.58312000  0.56259000  1.0
  C  C27  1  0.41641000  0.26012000  0.53385000  1.0
  C  C28  1  0.58360000  0.73989000  0.46614000  1.0
  C  C29  1  0.31039000  0.14364000  0.70394000  1.0
  C  C30  1  0.68962000  0.85637000  0.29606000  1.0
  C  C31  1  0.69507000  0.14517000  0.53402000  1.0
  C  C32  1  0.30493000  0.85484000  0.46597000  1.0
  C  C33  1  0.00299000  0.10188000  0.47381000  1.0
  C  C34  1  0.99701000  0.89813000  0.52618000  1.0
  N  N35  1  0.16007000  0.18368000  0.77355000  1.0
  N  N36  1  0.83992000  0.81631000  0.22645000  1.0
  N  N37  1  0.57342000  0.22746000  0.45528000  1.0
  N  N38  1  0.42659000  0.77254000  0.54472000  1.0
  N  N39  1  0.85030000  0.15992000  0.42233000  1.0
  N  N40  1  0.14969000  0.84007000  0.57768000  1.0
  N  N41  1  0.78204000  0.43823000  0.00851000  1.0
  N  N42  1  0.21795000  0.56175000  0.99150000  1.0
  O  O43  1  0.66291000  0.07197000  0.69242000  1.0
  O  O44  1  0.33710000  0.92804000  0.30757000  1.0
  O  O45  1  0.82506000  0.28429000  0.08085000  1.0
  O  O46  1  0.17493000  0.71570000  0.91916000  1.0
  O  O47  1  0.72593000  0.51849000  0.09764000  1.0
  O  O48  1  0.27405000  0.48149000  0.90237000  1.0
  O  O49  1  0.79392000  0.51109000  0.85467000  1.0
  O  O50  1  0.20608000  0.48890000  0.14534000  1.0
  O  O51  1  0.84987000  0.89970000  0.89655000  1.0
  O  O52  1  0.15014000  0.10029000  0.10345000  1.0
