# generated using pymatgen
data_ZnH3(CO)4
_symmetry_space_group_name_H-M   'P 1'
_cell_length_a   6.85727000
_cell_length_b   15.14993802
_cell_length_c   15.15250000
_cell_angle_alpha   117.73592096
_cell_angle_beta   98.67070000
_cell_angle_gamma   98.69958444
_symmetry_Int_Tables_number   1
_chemical_formula_structural   ZnH3(CO)4
_chemical_formula_sum   'Zn6 H18 C24 O24'
_cell_volume   1332.53212497
_cell_formula_units_Z   6
loop_
 _symmetry_equiv_pos_site_id
 _symmetry_equiv_pos_as_xyz
  1  'x, y, z'
loop_
 _atom_site_type_symbol
 _atom_site_label
 _atom_site_symmetry_multiplicity
 _atom_site_fract_x
 _atom_site_fract_y
 _atom_site_fract_z
 _atom_site_occupancy
  Zn  Zn0  1  0.38000000  0.67636000  0.41629000  1.0
  Zn  Zn1  1  0.70342000  0.73990000  0.32346000  1.0
  Zn  Zn2  1  0.96353000  0.58367000  0.26000000  1.0
  Zn  Zn3  1  0.62000000  0.32364000  0.58372000  1.0
  Zn  Zn4  1  0.29657000  0.26009000  0.67653000  1.0
  Zn  Zn5  1  0.03648000  0.41633000  0.74000000  1.0
  H  H6  1  0.70065000  0.54243000  0.56772000  1.0
  H  H7  1  0.15812000  0.02517000  0.45755000  1.0
  H  H8  1  0.13288000  0.43231000  0.97480000  1.0
  H  H9  1  0.29933000  0.45756000  0.43227000  1.0
  H  H10  1  0.84187000  0.97483000  0.54245000  1.0
  H  H11  1  0.86713000  0.56770000  0.02521000  1.0
  H  H12  1  0.24933000  0.73641000  0.59125000  1.0
  H  H13  1  0.51239000  0.85471000  0.26333000  1.0
  H  H14  1  0.65757000  0.40872000  0.14532000  1.0
  H  H15  1  0.75066000  0.26359000  0.40874000  1.0
  H  H16  1  0.48761000  0.14529000  0.73667000  1.0
  H  H17  1  0.34242000  0.59128000  0.85468000  1.0
  H  H18  1  0.10129000  0.74111000  0.50562000  1.0
  H  H19  1  0.35980000  0.76437000  0.25881000  1.0
  H  H20  1  0.59546000  0.49446000  0.23564000  1.0
  H  H21  1  0.89870000  0.25889000  0.49438000  1.0
  H  H22  1  0.64019000  0.23563000  0.74119000  1.0
  H  H23  1  0.40454000  0.50554000  0.76435000  1.0
  C  C24  1  0.76439000  0.62029000  0.44798000  1.0
  C  C25  1  0.14415000  0.82769000  0.37956000  1.0
  C  C26  1  0.31636000  0.55193000  0.17223000  1.0
  C  C27  1  0.23560000  0.37971000  0.55201000  1.0
  C  C28  1  0.85585000  0.17231000  0.62044000  1.0
  C  C29  1  0.68365000  0.44807000  0.82776000  1.0
  C  C30  1  0.88826000  0.55782000  0.47176000  1.0
  C  C31  1  0.33046000  0.91391000  0.44209000  1.0
  C  C32  1  0.41644000  0.52821000  0.08605000  1.0
  C  C33  1  0.11173000  0.44217000  0.52824000  1.0
  C  C34  1  0.66954000  0.08608000  0.55791000  1.0
  C  C35  1  0.58354000  0.47178000  0.91395000  1.0
  C  C36  1  0.83331000  0.52401000  0.53843000  1.0
  C  C37  1  0.30923000  0.01438000  0.47600000  1.0
  C  C38  1  0.29483000  0.46159000  0.98562000  1.0
  C  C39  1  0.16669000  0.47598000  0.46156000  1.0
  C  C40  1  0.69075000  0.98561000  0.52400000  1.0
  C  C41  1  0.70520000  0.53842000  0.01439000  1.0
  C  C42  1  0.05964000  0.53293000  0.43100000  1.0
  C  C43  1  0.52680000  0.89809000  0.46698000  1.0
  C  C44  1  0.62869000  0.56897000  0.10187000  1.0
  C  C45  1  0.94036000  0.46706000  0.56898000  1.0
  C  C46  1  0.47321000  0.10192000  0.53302000  1.0
  C  C47  1  0.37134000  0.43103000  0.89813000  1.0
  O  O48  1  0.59251000  0.62136000  0.46950000  1.0
  O  O49  1  0.97116000  0.84807000  0.37844000  1.0
  O  O50  1  0.12295000  0.53044000  0.15185000  1.0
  O  O51  1  0.40750000  0.37864000  0.53051000  1.0
  O  O52  1  0.02883000  0.15192000  0.62155000  1.0
  O  O53  1  0.87706000  0.46956000  0.84815000  1.0
  O  O54  1  0.84167000  0.67199000  0.40787000  1.0
  O  O55  1  0.16973000  0.73593000  0.32780000  1.0
  O  O56  1  0.43376000  0.59203000  0.26404000  1.0
  O  O57  1  0.15833000  0.32801000  0.59214000  1.0
  O  O58  1  0.83028000  0.26408000  0.67220000  1.0
  O  O59  1  0.56626000  0.40798000  0.73597000  1.0
  O  O60  1  0.12654000  0.56033000  0.36556000  1.0
  O  O61  1  0.56635000  0.80530000  0.43963000  1.0
  O  O62  1  0.76100000  0.63444000  0.19463000  1.0
  O  O63  1  0.87347000  0.43967000  0.63444000  1.0
  O  O64  1  0.43365000  0.19470000  0.56038000  1.0
  O  O65  1  0.23901000  0.36556000  0.80537000  1.0
  O  O66  1  0.24589000  0.76480000  0.54522000  1.0
  O  O67  1  0.48062000  0.78031000  0.23503000  1.0
  O  O68  1  0.70034000  0.45479000  0.21970000  1.0
  O  O69  1  0.75409000  0.23520000  0.45477000  1.0
  O  O70  1  0.51938000  0.21969000  0.76497000  1.0
  O  O71  1  0.29966000  0.54522000  0.78031000  1.0
