# generated using pymatgen
data_AlH5C8SNO5
_symmetry_space_group_name_H-M   'P 1'
_cell_length_a   6.70202000
_cell_length_b   11.01130000
_cell_length_c   12.76085187
_cell_angle_alpha   104.17123039
_cell_angle_beta   105.22135651
_cell_angle_gamma   105.94570000
_symmetry_Int_Tables_number   1
_chemical_formula_structural   AlH5C8SNO5
_chemical_formula_sum   'Al2 H10 C16 S2 N2 O10'
_cell_volume   821.15974485
_cell_formula_units_Z   2
loop_
 _symmetry_equiv_pos_site_id
 _symmetry_equiv_pos_as_xyz
  1  'x, y, z'
loop_
 _atom_site_type_symbol
 _atom_site_label
 _atom_site_symmetry_multiplicity
 _atom_site_fract_x
 _atom_site_fract_y
 _atom_site_fract_z
 _atom_site_occupancy
  Al  Al0  1  0.99942000  0.49965000  0.49941000  1.0
  Al  Al1  1  0.49953000  0.49937000  0.49956000  1.0
  H  H2  1  0.37726000  0.63541000  0.63205000  1.0
  H  H3  1  0.62538000  0.38042000  0.35955000  1.0
  H  H4  1  0.73280000  0.10655000  0.43798000  1.0
  H  H5  1  0.27095000  0.89703000  0.56772000  1.0
  H  H6  1  0.74737000  0.48557000  0.14178000  1.0
  H  H7  1  0.24956000  0.51126000  0.85536000  1.0
  H  H8  1  0.49324000  0.77527000  0.45305000  1.0
  H  H9  1  0.43834000  0.89681000  0.39889000  1.0
  H  H10  1  0.51118000  0.21991000  0.54378000  1.0
  H  H11  1  0.55667000  0.08472000  0.57901000  1.0
  C  C12  1  0.85949000  0.51486000  0.69958000  1.0
  C  C13  1  0.86547000  0.73578000  0.51825000  1.0
  C  C14  1  0.13814000  0.48310000  0.29830000  1.0
  C  C15  1  0.13615000  0.26541000  0.48390000  1.0
  C  C16  1  0.92857000  0.87326000  0.51248000  1.0
  C  C17  1  0.07464000  0.13037000  0.49440000  1.0
  C  C18  1  0.76893000  0.93178000  0.47614000  1.0
  C  C19  1  0.23512000  0.07379000  0.53420000  1.0
  C  C20  1  0.84905000  0.05879000  0.46690000  1.0
  C  C21  1  0.15401000  0.94488000  0.54042000  1.0
  C  C22  1  0.88667000  0.48925000  0.11252000  1.0
  C  C23  1  0.11051000  0.50762000  0.88483000  1.0
  C  C24  1  0.08386000  0.48793000  0.18060000  1.0
  C  C25  1  0.91338000  0.50919000  0.81702000  1.0
  C  C26  1  0.10115000  0.50044000  0.99239000  1.0
  C  C27  1  0.89578000  0.49610000  0.00484000  1.0
  S  S28  1  0.28133000  0.49585000  0.11449000  1.0
  S  S29  1  0.71567000  0.50079000  0.88282000  1.0
  N  N30  1  0.54482000  0.87151000  0.45416000  1.0
  N  N31  1  0.46040000  0.14098000  0.57044000  1.0
  O  O32  1  0.00449000  0.51134000  0.65257000  1.0
  O  O33  1  0.66710000  0.67884000  0.51409000  1.0
  O  O34  1  0.32722000  0.47620000  0.34389000  1.0
  O  O35  1  0.98910000  0.31919000  0.47240000  1.0
  O  O36  1  0.99299000  0.48690000  0.34526000  1.0
  O  O37  1  0.33322000  0.32088000  0.48595000  1.0
  O  O38  1  0.67121000  0.52266000  0.65439000  1.0
  O  O39  1  0.01153000  0.68121000  0.52709000  1.0
  O  O40  1  0.30873000  0.56673000  0.55623000  1.0
  O  O41  1  0.68952000  0.43237000  0.44131000  1.0
