# generated using pymatgen
data_LiH4C6NO3
_symmetry_space_group_name_H-M   'P 1'
_cell_length_a   8.70704000
_cell_length_b   9.02210000
_cell_length_c   10.32285818
_cell_angle_alpha   88.82923478
_cell_angle_beta   65.06115234
_cell_angle_gamma   61.15560000
_symmetry_Int_Tables_number   1
_chemical_formula_structural   LiH4C6NO3
_chemical_formula_sum   'Li4 H16 C24 N4 O12'
_cell_volume   626.75508965
_cell_formula_units_Z   4
loop_
 _symmetry_equiv_pos_site_id
 _symmetry_equiv_pos_as_xyz
  1  'x, y, z'
loop_
 _atom_site_type_symbol
 _atom_site_label
 _atom_site_symmetry_multiplicity
 _atom_site_fract_x
 _atom_site_fract_y
 _atom_site_fract_z
 _atom_site_occupancy
  Li  Li0  1  0.32464000  0.15859000  0.55566000  1.0
  Li  Li1  1  0.03887000  0.34140000  0.94434000  1.0
  Li  Li2  1  0.67536000  0.84142000  0.44434000  1.0
  Li  Li3  1  0.96112000  0.65860000  0.05566000  1.0
  H  H4  1  0.57358000  0.65811000  0.11372000  1.0
  H  H5  1  0.34543000  0.84187000  0.38628000  1.0
  H  H6  1  0.42641000  0.34190000  0.88628000  1.0
  H  H7  1  0.65457000  0.15813000  0.61372000  1.0
  H  H8  1  0.67643000  0.64291000  0.60653000  1.0
  H  H9  1  0.92597000  0.85704000  0.89343000  1.0
  H  H10  1  0.32357000  0.35709000  0.39347000  1.0
  H  H11  1  0.07403000  0.14296000  0.10657000  1.0
  H  H12  1  0.85394000  0.37578000  0.68912000  1.0
  H  H13  1  0.91888000  0.12418000  0.81086000  1.0
  H  H14  1  0.14605000  0.62423000  0.31089000  1.0
  H  H15  1  0.08112000  0.87582000  0.18914000  1.0
  H  H16  1  0.38443000  0.93941000  0.04881000  1.0
  H  H17  1  0.37275000  0.56051000  0.45115000  1.0
  H  H18  1  0.61556000  0.06059000  0.95119000  1.0
  H  H19  1  0.62725000  0.43949000  0.54885000  1.0
  C  C20  1  0.58398000  0.66626000  0.00546000  1.0
  C  C21  1  0.25578000  0.83368000  0.49452000  1.0
  C  C22  1  0.41602000  0.33375000  0.99454000  1.0
  C  C23  1  0.74423000  0.16632000  0.50548000  1.0
  C  C24  1  0.51195000  0.81467000  0.82249000  1.0
  C  C25  1  0.14921000  0.68526000  0.67748000  1.0
  C  C26  1  0.48805000  0.18533000  0.17751000  1.0
  C  C27  1  0.85079000  0.31475000  0.32252000  1.0
  C  C28  1  0.40008000  0.97828000  0.77960000  1.0
  C  C29  1  0.15787000  0.52170000  0.72040000  1.0
  C  C30  1  0.59991000  0.02172000  0.22040000  1.0
  C  C31  1  0.84213000  0.47830000  0.27960000  1.0
  C  C32  1  0.64618000  0.65404000  0.72085000  1.0
  C  C33  1  0.02120000  0.84589000  0.77912000  1.0
  C  C34  1  0.35381000  0.34596000  0.27915000  1.0
  C  C35  1  0.97880000  0.15411000  0.22088000  1.0
  C  C36  1  0.74369000  0.50454000  0.76280000  1.0
  C  C37  1  0.01110000  0.99541000  0.73718000  1.0
  C  C38  1  0.25631000  0.49547000  0.23720000  1.0
  C  C39  1  0.98890000  0.00459000  0.26282000  1.0
  C  C40  1  0.48426000  0.81736000  0.96644000  1.0
  C  C41  1  0.26819000  0.68254000  0.53354000  1.0
  C  C42  1  0.51574000  0.18264000  0.03356000  1.0
  C  C43  1  0.73181000  0.31746000  0.46646000  1.0
  N  N44  1  0.71049000  0.51097000  0.90475000  1.0
  N  N45  1  0.12629000  0.98897000  0.59523000  1.0
  N  N46  1  0.28950000  0.48903000  0.09525000  1.0
  N  N47  1  0.87371000  0.01103000  0.40477000  1.0
  O  O48  1  0.45203000  0.97160000  0.64330000  1.0
  O  O49  1  0.06679000  0.52842000  0.85670000  1.0
  O  O50  1  0.54797000  0.02840000  0.35670000  1.0
  O  O51  1  0.93321000  0.47158000  0.14330000  1.0
  O  O52  1  0.26104000  0.11194000  0.88186000  1.0
  O  O53  1  0.25464000  0.38805000  0.61815000  1.0
  O  O54  1  0.73897000  0.88806000  0.11813000  1.0
  O  O55  1  0.74536000  0.61195000  0.38185000  1.0
  O  O56  1  0.80256000  0.36825000  0.94373000  1.0
  O  O57  1  0.11456000  0.13172000  0.55627000  1.0
  O  O58  1  0.19744000  0.63176000  0.05627000  1.0
  O  O59  1  0.88544000  0.86828000  0.44373000  1.0
