# generated using pymatgen
data_Zn2H7C24N2O8F7
_symmetry_space_group_name_H-M   'P 1'
_cell_length_a   9.68939000
_cell_length_b   11.07390000
_cell_length_c   29.00600000
_cell_angle_alpha   90.13750000
_cell_angle_beta   89.66420000
_cell_angle_gamma   89.94540000
_symmetry_Int_Tables_number   1
_chemical_formula_structural   Zn2H7C24N2O8F7
_chemical_formula_sum   'Zn4 H14 C48 N4 O16 F14'
_cell_volume   3112.26066774
_cell_formula_units_Z   2
loop_
 _symmetry_equiv_pos_site_id
 _symmetry_equiv_pos_as_xyz
  1  'x, y, z'
loop_
 _atom_site_type_symbol
 _atom_site_label
 _atom_site_symmetry_multiplicity
 _atom_site_fract_x
 _atom_site_fract_y
 _atom_site_fract_z
 _atom_site_occupancy
  Zn  Zn0  1  0.64184000  0.49578000  0.49968000  1.0
  Zn  Zn1  1  0.36022000  0.50338000  0.49971000  1.0
  Zn  Zn2  1  0.35839000  0.49853000  0.11746000  1.0
  Zn  Zn3  1  0.63994000  0.50564000  0.11745000  1.0
  H  H4  1  0.14455000  0.36257000  0.45295000  1.0
  H  H5  1  0.85701000  0.63680000  0.54536000  1.0
  H  H6  1  0.28870000  0.87518000  0.49907000  1.0
  H  H7  1  0.71264000  0.12413000  0.50020000  1.0
  H  H8  1  0.26882000  0.49894000  0.96896000  1.0
  H  H9  1  0.71478000  0.50314000  0.97143000  1.0
  H  H10  1  0.28545000  0.50230000  0.64565000  1.0
  H  H11  1  0.73141000  0.49732000  0.64808000  1.0
  H  H12  1  0.72240000  0.50378000  0.26610000  1.0
  H  H13  1  0.27779000  0.50226000  0.35107000  1.0
  H  H14  1  0.85614000  0.36531000  0.16412000  1.0
  H  H15  1  0.14268000  0.63901000  0.07184000  1.0
  H  H16  1  0.71156000  0.87723000  0.11766000  1.0
  H  H17  1  0.28773000  0.12703000  0.11696000  1.0
  C  C18  1  0.51303000  0.73564000  0.49977000  1.0
  C  C19  1  0.51213000  0.49969000  0.58987000  1.0
  C  C20  1  0.48924000  0.26369000  0.49936000  1.0
  C  C21  1  0.49067000  0.50059000  0.40948000  1.0
  C  C22  1  0.48712000  0.73812000  0.11735000  1.0
  C  C23  1  0.48805000  0.50136000  0.02723000  1.0
  C  C24  1  0.51122000  0.26617000  0.11763000  1.0
  C  C25  1  0.50942000  0.50316000  0.20768000  1.0
  C  C26  1  0.93642000  0.42153000  0.47218000  1.0
  C  C27  1  0.06505000  0.57753000  0.52621000  1.0
  C  C28  1  0.08014000  0.42357000  0.47328000  1.0
  C  C29  1  0.92145000  0.57574000  0.52505000  1.0
  C  C30  1  0.49092000  0.12814000  0.49933000  1.0
  C  C31  1  0.51049000  0.87116000  0.49976000  1.0
  C  C32  1  0.37293000  0.05459000  0.49899000  1.0
  C  C33  1  0.62847000  0.94475000  0.50017000  1.0
  C  C34  1  0.38208000  0.92972000  0.49923000  1.0
  C  C35  1  0.61929000  0.06958000  0.49991000  1.0
  C  C36  1  0.49151000  0.50132000  0.97561000  1.0
  C  C37  1  0.36754000  0.50022000  0.95094000  1.0
  C  C38  1  0.37279000  0.50037000  0.90332000  1.0
  C  C39  1  0.49779000  0.50150000  0.87799000  1.0
  C  C40  1  0.61948000  0.50238000  0.90460000  1.0
  C  C41  1  0.61858000  0.50238000  0.95227000  1.0
  C  C42  1  0.50011000  0.50151000  0.82955000  1.0
  C  C43  1  0.50024000  0.50132000  0.78751000  1.0
  C  C44  1  0.50251000  0.50091000  0.73908000  1.0
  C  C45  1  0.38079000  0.50192000  0.71249000  1.0
  C  C46  1  0.38164000  0.50149000  0.66481000  1.0
  C  C47  1  0.50871000  0.50001000  0.64148000  1.0
  C  C48  1  0.63271000  0.49886000  0.66612000  1.0
  C  C49  1  0.62749000  0.49930000  0.71375000  1.0
  C  C50  1  0.49873000  0.50180000  0.35779000  1.0
  C  C51  1  0.50146000  0.50314000  0.25938000  1.0
  C  C52  1  0.62284000  0.50232000  0.33239000  1.0
  C  C53  1  0.37735000  0.50274000  0.28478000  1.0
  C  C54  1  0.62435000  0.50311000  0.28461000  1.0
  C  C55  1  0.37585000  0.50224000  0.33256000  1.0
  C  C56  1  0.06405000  0.42438000  0.14493000  1.0
  C  C57  1  0.93487000  0.57975000  0.09099000  1.0
  C  C58  1  0.92033000  0.42622000  0.14382000  1.0
  C  C59  1  0.07848000  0.57807000  0.09213000  1.0
  C  C60  1  0.50948000  0.13061000  0.11759000  1.0
  C  C61  1  0.48976000  0.87365000  0.11727000  1.0
  C  C62  1  0.62742000  0.05681000  0.11780000  1.0
  C  C63  1  0.37182000  0.94749000  0.11698000  1.0
  C  C64  1  0.61820000  0.93195000  0.11760000  1.0
  C  C65  1  0.38106000  0.07230000  0.11717000  1.0
  N  N66  1  0.85888000  0.49555000  0.49747000  1.0
  N  N67  1  0.14272000  0.50353000  0.50096000  1.0
  N  N68  1  0.14134000  0.49821000  0.11966000  1.0
  N  N69  1  0.85744000  0.50588000  0.11619000  1.0
  O  O70  1  0.62901000  0.68239000  0.50169000  1.0
  O  O71  1  0.39546000  0.68421000  0.49776000  1.0
  O  O72  1  0.39627000  0.49785000  0.56925000  1.0
  O  O73  1  0.63049000  0.50128000  0.57042000  1.0
  O  O74  1  0.37369000  0.31778000  0.49660000  1.0
  O  O75  1  0.60686000  0.31432000  0.50218000  1.0
  O  O76  1  0.60439000  0.49977000  0.43110000  1.0
  O  O77  1  0.37075000  0.50043000  0.42778000  1.0
  O  O78  1  0.37115000  0.68505000  0.11530000  1.0
  O  O79  1  0.60465000  0.68652000  0.11955000  1.0
  O  O80  1  0.60389000  0.49979000  0.04786000  1.0
  O  O81  1  0.36968000  0.50296000  0.04668000  1.0
  O  O82  1  0.62679000  0.32007000  0.12036000  1.0
  O  O83  1  0.39359000  0.31701000  0.11494000  1.0
  O  O84  1  0.39567000  0.50333000  0.18607000  1.0
  O  O85  1  0.62931000  0.50289000  0.18936000  1.0
  F  F86  1  0.87174000  0.34277000  0.44509000  1.0
  F  F87  1  0.12986000  0.65567000  0.55363000  1.0
  F  F88  1  0.24408000  0.10340000  0.49854000  1.0
  F  F89  1  0.75739000  0.89616000  0.50082000  1.0
  F  F90  1  0.74745000  0.50205000  0.35360000  1.0
  F  F91  1  0.25273000  0.50273000  0.26357000  1.0
  F  F92  1  0.12901000  0.34604000  0.17203000  1.0
  F  F93  1  0.86983000  0.65769000  0.06365000  1.0
  F  F94  1  0.75630000  0.10531000  0.11811000  1.0
  F  F95  1  0.24287000  0.89914000  0.11654000  1.0
  F  F96  1  0.74202000  0.50317000  0.88186000  1.0
  F  F97  1  0.25336000  0.49922000  0.87927000  1.0
  F  F98  1  0.74694000  0.49802000  0.73777000  1.0
  F  F99  1  0.25828000  0.50333000  0.73524000  1.0
