# generated using pymatgen
data_AgH4C6NO3
_symmetry_space_group_name_H-M   'P 1'
_cell_length_a   3.61157000
_cell_length_b   10.84130000
_cell_length_c   17.64320000
_cell_angle_alpha   90.00150000
_cell_angle_beta   90.00150000
_cell_angle_gamma   91.77610000
_symmetry_Int_Tables_number   1
_chemical_formula_structural   AgH4C6NO3
_chemical_formula_sum   'Ag4 H16 C24 N4 O12'
_cell_volume   690.47198200
_cell_formula_units_Z   4
loop_
 _symmetry_equiv_pos_site_id
 _symmetry_equiv_pos_as_xyz
  1  'x, y, z'
loop_
 _atom_site_type_symbol
 _atom_site_label
 _atom_site_symmetry_multiplicity
 _atom_site_fract_x
 _atom_site_fract_y
 _atom_site_fract_z
 _atom_site_occupancy
  Ag  Ag0  1  0.69204000  0.39819000  0.47560000  1.0
  Ag  Ag1  1  0.30800000  0.10181000  0.97561000  1.0
  Ag  Ag2  1  0.30796000  0.60180000  0.52440000  1.0
  Ag  Ag3  1  0.69206000  0.89820000  0.02439000  1.0
  H  H4  1  0.91864000  0.34311000  0.32866000  1.0
  H  H5  1  0.08132000  0.15689000  0.82867000  1.0
  H  H6  1  0.08135000  0.65688000  0.67133000  1.0
  H  H7  1  0.91866000  0.84311000  0.17133000  1.0
  H  H8  1  0.05315000  0.28052000  0.19361000  1.0
  H  H9  1  0.94681000  0.21948000  0.69360000  1.0
  H  H10  1  0.94682000  0.71947000  0.80639000  1.0
  H  H11  1  0.05316000  0.78051000  0.30639000  1.0
  H  H12  1  0.52697000  0.95040000  0.28033000  1.0
  H  H13  1  0.47304000  0.54962000  0.78034000  1.0
  H  H14  1  0.47304000  0.04961000  0.71967000  1.0
  H  H15  1  0.52696000  0.45039000  0.21967000  1.0
  H  H16  1  0.37065000  0.02358000  0.41264000  1.0
  H  H17  1  0.62938000  0.47643000  0.91264000  1.0
  H  H18  1  0.62938000  0.97641000  0.58736000  1.0
  H  H19  1  0.37062000  0.52358000  0.08737000  1.0
  C  C20  1  0.05599000  0.25849000  0.31409000  1.0
  C  C21  1  0.94400000  0.24151000  0.81409000  1.0
  C  C22  1  0.94400000  0.74151000  0.68591000  1.0
  C  C23  1  0.05597000  0.75849000  0.18590000  1.0
  C  C24  1  0.13164000  0.22235000  0.24093000  1.0
  C  C25  1  0.86832000  0.27764000  0.74093000  1.0
  C  C26  1  0.86837000  0.77764000  0.75907000  1.0
  C  C27  1  0.13163000  0.72235000  0.25908000  1.0
  C  C28  1  0.30644000  0.11157000  0.22634000  1.0
  C  C29  1  0.69356000  0.38845000  0.72634000  1.0
  C  C30  1  0.69355000  0.88843000  0.77366000  1.0
  C  C31  1  0.30643000  0.61156000  0.27366000  1.0
  C  C32  1  0.39244000  0.03772000  0.28869000  1.0
  C  C33  1  0.60758000  0.46229000  0.78870000  1.0
  C  C34  1  0.60758000  0.96228000  0.71130000  1.0
  C  C35  1  0.39240000  0.53771000  0.21131000  1.0
  C  C36  1  0.31160000  0.07528000  0.36146000  1.0
  C  C37  1  0.68842000  0.42473000  0.86147000  1.0
  C  C38  1  0.68843000  0.92472000  0.63854000  1.0
  C  C39  1  0.31157000  0.57527000  0.13853000  1.0
  C  C40  1  0.39019000  0.07537000  0.14643000  1.0
  C  C41  1  0.60984000  0.42463000  0.64644000  1.0
  C  C42  1  0.60983000  0.92463000  0.85357000  1.0
  C  C43  1  0.39012000  0.57537000  0.35357000  1.0
  N  N44  1  0.14768000  0.18584000  0.37423000  1.0
  N  N45  1  0.85236000  0.31416000  0.87424000  1.0
  N  N46  1  0.85236000  0.81416000  0.62576000  1.0
  N  N47  1  0.14766000  0.68583000  0.12577000  1.0
  O  O48  1  0.07887000  0.21941000  0.44370000  1.0
  O  O49  1  0.92114000  0.28060000  0.94370000  1.0
  O  O50  1  0.92116000  0.78060000  0.55630000  1.0
  O  O51  1  0.07886000  0.71940000  0.05630000  1.0
  O  O52  1  0.55268000  0.97341000  0.13731000  1.0
  O  O53  1  0.44731000  0.52659000  0.63731000  1.0
  O  O54  1  0.44733000  0.02659000  0.86269000  1.0
  O  O55  1  0.55268000  0.47341000  0.36269000  1.0
  O  O56  1  0.28927000  0.14964000  0.09552000  1.0
  O  O57  1  0.71074000  0.35036000  0.59553000  1.0
  O  O58  1  0.71074000  0.85035000  0.90448000  1.0
  O  O59  1  0.28926000  0.64965000  0.40448000  1.0
