# generated using pymatgen
data_HoH8(C3O2)3
_symmetry_space_group_name_H-M   'P 1'
_cell_length_a   6.04752000
_cell_length_b   7.73044000
_cell_length_c   20.96420000
_cell_angle_alpha   86.69400000
_cell_angle_beta   89.99980000
_cell_angle_gamma   89.99980000
_symmetry_Int_Tables_number   1
_chemical_formula_structural   HoH8(C3O2)3
_chemical_formula_sum   'Ho4 H32 C36 O24'
_cell_volume   978.44509167
_cell_formula_units_Z   4
loop_
 _symmetry_equiv_pos_site_id
 _symmetry_equiv_pos_as_xyz
  1  'x, y, z'
loop_
 _atom_site_type_symbol
 _atom_site_label
 _atom_site_symmetry_multiplicity
 _atom_site_fract_x
 _atom_site_fract_y
 _atom_site_fract_z
 _atom_site_occupancy
  Ho  Ho0  1  0.27380000  0.19169000  0.19548000  1.0
  Ho  Ho1  1  0.77380000  0.30831000  0.80453000  1.0
  Ho  Ho2  1  0.72620000  0.80831000  0.80452000  1.0
  Ho  Ho3  1  0.22620000  0.69169000  0.19548000  1.0
  H  H4  1  0.64003000  0.20332000  0.37960000  1.0
  H  H5  1  0.14003000  0.29669000  0.62040000  1.0
  H  H6  1  0.35997000  0.79670000  0.62040000  1.0
  H  H7  1  0.85997000  0.70331000  0.37960000  1.0
  H  H8  1  0.35646000  0.51931000  0.36207000  1.0
  H  H9  1  0.85645000  0.98069000  0.63793000  1.0
  H  H10  1  0.64355000  0.48070000  0.63793000  1.0
  H  H11  1  0.14354000  0.01931000  0.36207000  1.0
  H  H12  1  0.71733000  0.12654000  0.16158000  1.0
  H  H13  1  0.21733000  0.37346000  0.83842000  1.0
  H  H14  1  0.28267000  0.87346000  0.83842000  1.0
  H  H15  1  0.78267000  0.62653000  0.16158000  1.0
  H  H16  1  0.59941000  0.16051000  0.09437000  1.0
  H  H17  1  0.09941000  0.33949000  0.90564000  1.0
  H  H18  1  0.40059000  0.83949000  0.90564000  1.0
  H  H19  1  0.90059000  0.66051000  0.09437000  1.0
  H  H20  1  0.83047000  0.29201000  0.47856000  1.0
  H  H21  1  0.33046000  0.20800000  0.52144000  1.0
  H  H22  1  0.16953000  0.70801000  0.52144000  1.0
  H  H23  1  0.66953000  0.79200000  0.47856000  1.0
  H  H24  1  0.18853000  0.45287000  0.46869000  1.0
  H  H25  1  0.68851000  0.04713000  0.53131000  1.0
  H  H26  1  0.81147000  0.54714000  0.53131000  1.0
  H  H27  1  0.31147000  0.95287000  0.46869000  1.0
  H  H28  1  0.42218000  0.32169000  0.02820000  1.0
  H  H29  1  0.92217000  0.17830000  0.97180000  1.0
  H  H30  1  0.57783000  0.67830000  0.97180000  1.0
  H  H31  1  0.07783000  0.82170000  0.02820000  1.0
  H  H32  1  0.68314000  0.41622000  0.04290000  1.0
  H  H33  1  0.18314000  0.08377000  0.95710000  1.0
  H  H34  1  0.31687000  0.58377000  0.95710000  1.0
  H  H35  1  0.81687000  0.91622000  0.04290000  1.0
  C  C36  1  0.77961000  0.24194000  0.25982000  1.0
  C  C37  1  0.27961000  0.25806000  0.74018000  1.0
  C  C38  1  0.22039000  0.75806000  0.74018000  1.0
  C  C39  1  0.72039000  0.74194000  0.25982000  1.0
  C  C40  1  0.89420000  0.30458000  0.31649000  1.0
  C  C41  1  0.39420000  0.19542000  0.68351000  1.0
  C  C42  1  0.10580000  0.69542000  0.68351000  1.0
  C  C43  1  0.60580000  0.80458000  0.31649000  1.0
  C  C44  1  0.79779000  0.27160000  0.37694000  1.0
  C  C45  1  0.29779000  0.22841000  0.62306000  1.0
  C  C46  1  0.20221000  0.72842000  0.62306000  1.0
  C  C47  1  0.70221000  0.77159000  0.37694000  1.0
  C  C48  1  0.09787000  0.39560000  0.31063000  1.0
  C  C49  1  0.59787000  0.10440000  0.68936000  1.0
  C  C50  1  0.90214000  0.60440000  0.68937000  1.0
  C  C51  1  0.40213000  0.89560000  0.31063000  1.0
  C  C52  1  0.20083000  0.44856000  0.36650000  1.0
  C  C53  1  0.70082000  0.05144000  0.63350000  1.0
  C  C54  1  0.79918000  0.55144000  0.63350000  1.0
  C  C55  1  0.29917000  0.94856000  0.36650000  1.0
  C  C56  1  0.90380000  0.32163000  0.43173000  1.0
  C  C57  1  0.40380000  0.17838000  0.56827000  1.0
  C  C58  1  0.09620000  0.67838000  0.56827000  1.0
  C  C59  1  0.59620000  0.82163000  0.43173000  1.0
  C  C60  1  0.10555000  0.41068000  0.42607000  1.0
  C  C61  1  0.60554000  0.08932000  0.57393000  1.0
  C  C62  1  0.89446000  0.58932000  0.57393000  1.0
  C  C63  1  0.39445000  0.91068000  0.42607000  1.0
  C  C64  1  0.50861000  0.44588000  0.03137000  1.0
  C  C65  1  0.00861000  0.05411000  0.96863000  1.0
  C  C66  1  0.49139000  0.55411000  0.96863000  1.0
  C  C67  1  0.99139000  0.94588000  0.03137000  1.0
  C  C68  1  0.41416000  0.53359000  0.08775000  1.0
  C  C69  1  0.91417000  0.96640000  0.91225000  1.0
  C  C70  1  0.58584000  0.46641000  0.91225000  1.0
  C  C71  1  0.08583000  0.03359000  0.08775000  1.0
  O  O72  1  0.19035000  0.43289000  0.25294000  1.0
  O  O73  1  0.69035000  0.06711000  0.74706000  1.0
  O  O74  1  0.80965000  0.56711000  0.74706000  1.0
  O  O75  1  0.30965000  0.93289000  0.25294000  1.0
  O  O76  1  0.89559000  0.19341000  0.21208000  1.0
  O  O77  1  0.39559000  0.30659000  0.78792000  1.0
  O  O78  1  0.10441000  0.80659000  0.78792000  1.0
  O  O79  1  0.60441000  0.69341000  0.21208000  1.0
  O  O80  1  0.57089000  0.23354000  0.25989000  1.0
  O  O81  1  0.07088000  0.26647000  0.74012000  1.0
  O  O82  1  0.42912000  0.76646000  0.74012000  1.0
  O  O83  1  0.92912000  0.73353000  0.25988000  1.0
  O  O84  1  0.36531000  0.69292000  0.08418000  1.0
  O  O85  1  0.86531000  0.80707000  0.91583000  1.0
  O  O86  1  0.63469000  0.30707000  0.91582000  1.0
  O  O87  1  0.13468000  0.19293000  0.08418000  1.0
  O  O88  1  0.58543000  0.09287000  0.13471000  1.0
  O  O89  1  0.08543000  0.40713000  0.86529000  1.0
  O  O90  1  0.41457000  0.90712000  0.86529000  1.0
  O  O91  1  0.91457000  0.59287000  0.13471000  1.0
  O  O92  1  0.38690000  0.44512000  0.14104000  1.0
  O  O93  1  0.88690000  0.05487000  0.85896000  1.0
  O  O94  1  0.61311000  0.55487000  0.85896000  1.0
  O  O95  1  0.11310000  0.94513000  0.14104000  1.0
