# generated using pymatgen
data_ZnH18C16N2O5
_symmetry_space_group_name_H-M   'P 1'
_cell_length_a   8.10987000
_cell_length_b   14.89170000
_cell_length_c   17.55660000
_cell_angle_alpha   79.09200000
_cell_angle_beta   76.66850000
_cell_angle_gamma   74.21570000
_symmetry_Int_Tables_number   1
_chemical_formula_structural   ZnH18C16N2O5
_chemical_formula_sum   'Zn4 H72 C64 N8 O20'
_cell_volume   1967.16786429
_cell_formula_units_Z   4
loop_
 _symmetry_equiv_pos_site_id
 _symmetry_equiv_pos_as_xyz
  1  'x, y, z'
loop_
 _atom_site_type_symbol
 _atom_site_label
 _atom_site_symmetry_multiplicity
 _atom_site_fract_x
 _atom_site_fract_y
 _atom_site_fract_z
 _atom_site_occupancy
  Zn  Zn0  1  0.24442000  0.57936000  0.42362000  1.0
  Zn  Zn1  1  0.24735000  0.92057000  0.07650000  1.0
  Zn  Zn2  1  0.75557000  0.42064000  0.57638000  1.0
  Zn  Zn3  1  0.75265000  0.07943000  0.92350000  1.0
  H  H4  1  0.09575000  0.54756000  0.56121000  1.0
  H  H5  1  0.20458000  0.95224000  0.93885000  1.0
  H  H6  1  0.90424000  0.45245000  0.43879000  1.0
  H  H7  1  0.79543000  0.04776000  0.06115000  1.0
  H  H8  1  0.30584000  0.49241000  0.55811000  1.0
  H  H9  1  0.35665000  0.00727000  0.94192000  1.0
  H  H10  1  0.69416000  0.50759000  0.44189000  1.0
  H  H11  1  0.64335000  0.99273000  0.05808000  1.0
  H  H12  1  0.90627000  0.62711000  0.44135000  1.0
  H  H13  1  0.97433000  0.87295000  0.05881000  1.0
  H  H14  1  0.09373000  0.37289000  0.55865000  1.0
  H  H15  1  0.02567000  0.12706000  0.94120000  1.0
  H  H16  1  0.98939000  0.71574000  0.39488000  1.0
  H  H17  1  0.09934000  0.78433000  0.10541000  1.0
  H  H18  1  0.01060000  0.28426000  0.60512000  1.0
  H  H19  1  0.90065000  0.21567000  0.89460000  1.0
  H  H20  1  0.57400000  0.36647000  0.27211000  1.0
  H  H21  1  0.21346000  0.13373000  0.22754000  1.0
  H  H22  1  0.42599000  0.63353000  0.72789000  1.0
  H  H23  1  0.78658000  0.86627000  0.77246000  1.0
  H  H24  1  0.72270000  0.21181000  0.22375000  1.0
  H  H25  1  0.15918000  0.28843000  0.27592000  1.0
  H  H26  1  0.27729000  0.78819000  0.77625000  1.0
  H  H27  1  0.84084000  0.71157000  0.72408000  1.0
  H  H28  1  0.34945000  0.08173000  0.39235000  1.0
  H  H29  1  0.82337000  0.41830000  0.10768000  1.0
  H  H30  1  0.65054000  0.91827000  0.60765000  1.0
  H  H31  1  0.17662000  0.58169000  0.89232000  1.0
  H  H32  1  0.20039000  0.23752000  0.43919000  1.0
  H  H33  1  0.87690000  0.26248000  0.06081000  1.0
  H  H34  1  0.79961000  0.76248000  0.56081000  1.0
  H  H35  1  0.12311000  0.73751000  0.93921000  1.0
  H  H36  1  0.74327000  0.94335000  0.39670000  1.0
  H  H37  1  0.08317000  0.55693000  0.10293000  1.0
  H  H38  1  0.25671000  0.05665000  0.60330000  1.0
  H  H39  1  0.91683000  0.44306000  0.89707000  1.0
  H  H40  1  0.67675000  0.78392000  0.44723000  1.0
  H  H41  1  0.90725000  0.71631000  0.05272000  1.0
  H  H42  1  0.32324000  0.21608000  0.55277000  1.0
  H  H43  1  0.09275000  0.28368000  0.94728000  1.0
  H  H44  1  0.35258000  0.83102000  0.27494000  1.0
  H  H45  1  0.45907000  0.66882000  0.22550000  1.0
  H  H46  1  0.64743000  0.16898000  0.72505000  1.0
  H  H47  1  0.54094000  0.33118000  0.77449000  1.0
  H  H48  1  0.41907000  0.98726000  0.22339000  1.0
  H  H49  1  0.63079000  0.51265000  0.27675000  1.0
  H  H50  1  0.58094000  0.01273000  0.77660000  1.0
  H  H51  1  0.36921000  0.48735000  0.72325000  1.0
  H  H52  1  0.37289000  0.64307000  0.55863000  1.0
  H  H53  1  0.57443000  0.85652000  0.94155000  1.0
  H  H54  1  0.62710000  0.35693000  0.44137000  1.0
  H  H55  1  0.42557000  0.14348000  0.05845000  1.0
  H  H56  1  0.21419000  0.61772000  0.64371000  1.0
  H  H57  1  0.47533000  0.88177000  0.85649000  1.0
  H  H58  1  0.78580000  0.38228000  0.35629000  1.0
  H  H59  1  0.52467000  0.11823000  0.14351000  1.0
  H  H60  1  0.14742000  0.69797000  0.56155000  1.0
  H  H61  1  0.40653000  0.80170000  0.93875000  1.0
  H  H62  1  0.85257000  0.30203000  0.43845000  1.0
  H  H63  1  0.59347000  0.19830000  0.06125000  1.0
  H  H64  1  0.07802000  0.65299000  0.27207000  1.0
  H  H65  1  0.00277000  0.84740000  0.22806000  1.0
  H  H66  1  0.92199000  0.34702000  0.72792000  1.0
  H  H67  1  0.99721000  0.15262000  0.77195000  1.0
  H  H68  1  0.84845000  0.66462000  0.30716000  1.0
  H  H69  1  0.81981000  0.83575000  0.19301000  1.0
  H  H70  1  0.15155000  0.33539000  0.69283000  1.0
  H  H71  1  0.18017000  0.16427000  0.80699000  1.0
  H  H72  1  0.99867000  0.55283000  0.31966000  1.0
  H  H73  1  0.87105000  0.94750000  0.18035000  1.0
  H  H74  1  0.00133000  0.44718000  0.68034000  1.0
  H  H75  1  0.12894000  0.05251000  0.81965000  1.0
  C  C76  1  0.29113000  0.40291000  0.39054000  1.0
  C  C77  1  0.08463000  0.09712000  0.10942000  1.0
  C  C78  1  0.70887000  0.59709000  0.60946000  1.0
  C  C79  1  0.91538000  0.90287000  0.89058000  1.0
  C  C80  1  0.37908000  0.31155000  0.35993000  1.0
  C  C81  1  0.05073000  0.18852000  0.13998000  1.0
  C  C82  1  0.62092000  0.68845000  0.64007000  1.0
  C  C83  1  0.94928000  0.81147000  0.86003000  1.0
  C  C84  1  0.52584000  0.30396000  0.29852000  1.0
  C  C85  1  0.12887000  0.19617000  0.20127000  1.0
  C  C86  1  0.47416000  0.69604000  0.70149000  1.0
  C  C87  1  0.87116000  0.80382000  0.79873000  1.0
  C  C88  1  0.60868000  0.21838000  0.27121000  1.0
  C  C89  1  0.09891000  0.28177000  0.22856000  1.0
  C  C90  1  0.39132000  0.78162000  0.72879000  1.0
  C  C91  1  0.90112000  0.71823000  0.77144000  1.0
  C  C92  1  0.54554000  0.13840000  0.30558000  1.0
  C  C93  1  0.98989000  0.36168000  0.19429000  1.0
  C  C94  1  0.45445000  0.86160000  0.69442000  1.0
  C  C95  1  0.01012000  0.63831000  0.80571000  1.0
  C  C96  1  0.39858000  0.14413000  0.36647000  1.0
  C  C97  1  0.90915000  0.35593000  0.13352000  1.0
  C  C98  1  0.60141000  0.85587000  0.63353000  1.0
  C  C99  1  0.09084000  0.64407000  0.86649000  1.0
  C  C100  1  0.31657000  0.23092000  0.39274000  1.0
  C  C101  1  0.94016000  0.26912000  0.10725000  1.0
  C  C102  1  0.68342000  0.76908000  0.60726000  1.0
  C  C103  1  0.05984000  0.73088000  0.89276000  1.0
  C  C104  1  0.58549000  0.97286000  0.30762000  1.0
  C  C105  1  0.86638000  0.52722000  0.19227000  1.0
  C  C106  1  0.41450000  0.02714000  0.69238000  1.0
  C  C107  1  0.13362000  0.47277000  0.80773000  1.0
  C  C108  1  0.65856000  0.91727000  0.37063000  1.0
  C  C109  1  0.94644000  0.58291000  0.12917000  1.0
  C  C110  1  0.34142000  0.08273000  0.62937000  1.0
  C  C111  1  0.05356000  0.41708000  0.87083000  1.0
  C  C112  1  0.62265000  0.82917000  0.39801000  1.0
  C  C113  1  0.84955000  0.67099000  0.10194000  1.0
  C  C114  1  0.37734000  0.17084000  0.60199000  1.0
  C  C115  1  0.15045000  0.32901000  0.89806000  1.0
  C  C116  1  0.51325000  0.79744000  0.36346000  1.0
  C  C117  1  0.67407000  0.70259000  0.13668000  1.0
  C  C118  1  0.48675000  0.20256000  0.63653000  1.0
  C  C119  1  0.32593000  0.29740000  0.86332000  1.0
  C  C120  1  0.43767000  0.85568000  0.30171000  1.0
  C  C121  1  0.59540000  0.64427000  0.19850000  1.0
  C  C122  1  0.56234000  0.14432000  0.69828000  1.0
  C  C123  1  0.40460000  0.35572000  0.80149000  1.0
  C  C124  1  0.47459000  0.94333000  0.27288000  1.0
  C  C125  1  0.69140000  0.55664000  0.22720000  1.0
  C  C126  1  0.52542000  0.05667000  0.72712000  1.0
  C  C127  1  0.30860000  0.44335000  0.77280000  1.0
  C  C128  1  0.47833000  0.70160000  0.39240000  1.0
  C  C129  1  0.57202000  0.79840000  0.10778000  1.0
  C  C130  1  0.52167000  0.29840000  0.60760000  1.0
  C  C131  1  0.42798000  0.20160000  0.89222000  1.0
  C  C132  1  0.24060000  0.63270000  0.57903000  1.0
  C  C133  1  0.45212000  0.86692000  0.92117000  1.0
  C  C134  1  0.75939000  0.36730000  0.42097000  1.0
  C  C135  1  0.54788000  0.13308000  0.07883000  1.0
  C  C136  1  0.97885000  0.62862000  0.31932000  1.0
  C  C137  1  0.92648000  0.87168000  0.18080000  1.0
  C  C138  1  0.02115000  0.37138000  0.68068000  1.0
  C  C139  1  0.07350000  0.12833000  0.81920000  1.0
  N  N140  1  0.22160000  0.55548000  0.54224000  1.0
  N  N141  1  0.31938000  0.94426000  0.95787000  1.0
  N  N142  1  0.77839000  0.44452000  0.45776000  1.0
  N  N143  1  0.68062000  0.05574000  0.04213000  1.0
  N  N144  1  0.00222000  0.64530000  0.39599000  1.0
  N  N145  1  0.04312000  0.85480000  0.10418000  1.0
  N  N146  1  0.99778000  0.35470000  0.60401000  1.0
  N  N147  1  0.95687000  0.14520000  0.89583000  1.0
  O  O148  1  0.36782000  0.47158000  0.36453000  1.0
  O  O149  1  0.20406000  0.02852000  0.13543000  1.0
  O  O150  1  0.63218000  0.52842000  0.63547000  1.0
  O  O151  1  0.79595000  0.97148000  0.86458000  1.0
  O  O152  1  0.14940000  0.41053000  0.44010000  1.0
  O  O153  1  0.99992000  0.08939000  0.05993000  1.0
  O  O154  1  0.85060000  0.58948000  0.55990000  1.0
  O  O155  1  0.00009000  0.91060000  0.94007000  1.0
  O  O156  1  0.63549000  0.05667000  0.27471000  1.0
  O  O157  1  0.96751000  0.44343000  0.22509000  1.0
  O  O158  1  0.36450000  0.94333000  0.72528000  1.0
  O  O159  1  0.03249000  0.55657000  0.77492000  1.0
  O  O160  1  0.58017000  0.64036000  0.43057000  1.0
  O  O161  1  0.65059000  0.85972000  0.06959000  1.0
  O  O162  1  0.41984000  0.35964000  0.56943000  1.0
  O  O163  1  0.34940000  0.14028000  0.93042000  1.0
  O  O164  1  0.33958000  0.69034000  0.37472000  1.0
  O  O165  1  0.40437000  0.80953000  0.12547000  1.0
  O  O166  1  0.66042000  0.30966000  0.62528000  1.0
  O  O167  1  0.59563000  0.19046000  0.87453000  1.0
