# generated using pymatgen
data_AgH17C8S(NO2)2
_symmetry_space_group_name_H-M   'P 1'
_cell_length_a   10.02060000
_cell_length_b   10.86330000
_cell_length_c   12.87500000
_cell_angle_alpha   90.94500000
_cell_angle_beta   90.00000000
_cell_angle_gamma   90.00000000
_symmetry_Int_Tables_number   1
_chemical_formula_structural   AgH17C8S(NO2)2
_chemical_formula_sum   'Ag4 H68 C32 S4 N8 O16'
_cell_volume   1401.34046813
_cell_formula_units_Z   4
loop_
 _symmetry_equiv_pos_site_id
 _symmetry_equiv_pos_as_xyz
  1  'x, y, z'
loop_
 _atom_site_type_symbol
 _atom_site_label
 _atom_site_symmetry_multiplicity
 _atom_site_fract_x
 _atom_site_fract_y
 _atom_site_fract_z
 _atom_site_occupancy
  Ag  Ag0  1  0.84208000  0.61452000  0.70483000  1.0
  Ag  Ag1  1  0.34208000  0.88549000  0.79517000  1.0
  Ag  Ag2  1  0.15792000  0.38549000  0.29517000  1.0
  Ag  Ag3  1  0.65792000  0.11451000  0.20483000  1.0
  H  H4  1  0.73443000  0.83796000  0.22164000  1.0
  H  H5  1  0.23442000  0.66204000  0.27838000  1.0
  H  H6  1  0.26558000  0.16204000  0.77837000  1.0
  H  H7  1  0.76558000  0.33797000  0.72163000  1.0
  H  H8  1  0.90699000  0.31704000  0.42920000  1.0
  H  H9  1  0.40699000  0.18295000  0.07079000  1.0
  H  H10  1  0.09301000  0.68295000  0.57079000  1.0
  H  H11  1  0.59300000  0.81705000  0.92921000  1.0
  H  H12  1  0.76562000  0.29669000  0.34578000  1.0
  H  H13  1  0.26561000  0.20331000  0.15421000  1.0
  H  H14  1  0.23438000  0.70331000  0.65421000  1.0
  H  H15  1  0.73438000  0.79670000  0.84579000  1.0
  H  H16  1  0.79230000  0.33666000  0.15510000  1.0
  H  H17  1  0.29230000  0.16334000  0.34490000  1.0
  H  H18  1  0.20770000  0.66334000  0.84490000  1.0
  H  H19  1  0.70770000  0.83666000  0.65510000  1.0
  H  H20  1  0.95014000  0.38946000  0.11127000  1.0
  H  H21  1  0.45014000  0.11054000  0.38873000  1.0
  H  H22  1  0.04986000  0.61054000  0.88873000  1.0
  H  H23  1  0.54987000  0.88946000  0.61127000  1.0
  H  H24  1  0.05486000  0.19153000  0.15787000  1.0
  H  H25  1  0.55487000  0.30846000  0.34213000  1.0
  H  H26  1  0.94514000  0.80847000  0.84213000  1.0
  H  H27  1  0.44514000  0.69153000  0.65787000  1.0
  H  H28  1  0.91762000  0.16901000  0.07049000  1.0
  H  H29  1  0.41763000  0.33099000  0.42951000  1.0
  H  H30  1  0.08237000  0.83099000  0.92951000  1.0
  H  H31  1  0.58238000  0.66901000  0.57049000  1.0
  H  H32  1  0.87097000  0.09866000  0.38806000  1.0
  H  H33  1  0.37097000  0.40134000  0.11193000  1.0
  H  H34  1  0.12903000  0.90134000  0.61193000  1.0
  H  H35  1  0.62902000  0.59866000  0.88807000  1.0
  H  H36  1  0.02803000  0.15096000  0.34248000  1.0
  H  H37  1  0.52803000  0.34904000  0.15751000  1.0
  H  H38  1  0.97198000  0.84904000  0.65751000  1.0
  H  H39  1  0.47197000  0.65097000  0.84249000  1.0
  H  H40  1  0.91188000  0.55679000  0.22268000  1.0
  H  H41  1  0.41188000  0.94321000  0.27732000  1.0
  H  H42  1  0.08812000  0.44321000  0.77731000  1.0
  H  H43  1  0.58813000  0.05679000  0.72268000  1.0
  H  H44  1  0.76622000  0.49254000  0.27912000  1.0
  H  H45  1  0.26621000  0.00746000  0.22088000  1.0
  H  H46  1  0.23378000  0.50746000  0.72088000  1.0
  H  H47  1  0.73379000  0.99254000  0.77912000  1.0
  H  H48  1  0.89715000  0.49937000  0.45518000  1.0
  H  H49  1  0.39714000  0.00063000  0.04482000  1.0
  H  H50  1  0.10286000  0.50063000  0.54482000  1.0
  H  H51  1  0.60286000  0.99937000  0.95518000  1.0
  H  H52  1  0.01263000  0.59826000  0.39063000  1.0
  H  H53  1  0.51262000  0.90173000  0.10937000  1.0
  H  H54  1  0.98738000  0.40174000  0.60936000  1.0
  H  H55  1  0.48738000  0.09827000  0.89063000  1.0
  H  H56  1  0.04122000  0.99043000  0.18810000  1.0
  H  H57  1  0.54122000  0.50957000  0.31189000  1.0
  H  H58  1  0.95878000  0.00957000  0.81189000  1.0
  H  H59  1  0.45878000  0.49043000  0.68811000  1.0
  H  H60  1  0.92505000  0.93851000  0.28250000  1.0
  H  H61  1  0.42505000  0.56150000  0.21750000  1.0
  H  H62  1  0.07495000  0.06150000  0.71750000  1.0
  H  H63  1  0.57494000  0.43850000  0.78250000  1.0
  H  H64  1  0.91717000  0.82904000  0.10998000  1.0
  H  H65  1  0.41717000  0.67095000  0.39002000  1.0
  H  H66  1  0.08283000  0.17095000  0.89002000  1.0
  H  H67  1  0.58283000  0.32905000  0.60998000  1.0
  H  H68  1  0.85286000  0.96521000  0.05289000  1.0
  H  H69  1  0.35287000  0.53478000  0.44711000  1.0
  H  H70  1  0.14714000  0.03478000  0.94711000  1.0
  H  H71  1  0.64713000  0.46522000  0.55289000  1.0
  C  C72  1  0.87580000  0.29008000  0.35054000  1.0
  C  C73  1  0.37580000  0.20992000  0.14946000  1.0
  C  C74  1  0.12420000  0.70992000  0.64946000  1.0
  C  C75  1  0.62420000  0.79008000  0.85054000  1.0
  C  C76  1  0.90115000  0.32978000  0.16783000  1.0
  C  C77  1  0.40115000  0.17022000  0.33217000  1.0
  C  C78  1  0.09885000  0.67022000  0.83216000  1.0
  C  C79  1  0.59885000  0.82978000  0.66784000  1.0
  C  C80  1  0.94500000  0.19810000  0.14972000  1.0
  C  C81  1  0.44500000  0.30190000  0.35027000  1.0
  C  C82  1  0.05500000  0.80190000  0.85027000  1.0
  C  C83  1  0.55500000  0.69810000  0.64973000  1.0
  C  C84  1  0.91905000  0.15825000  0.33104000  1.0
  C  C85  1  0.41905000  0.34175000  0.16896000  1.0
  C  C86  1  0.08095000  0.84175000  0.66896000  1.0
  C  C87  1  0.58095000  0.65825000  0.83105000  1.0
  C  C88  1  0.87578000  0.50049000  0.28697000  1.0
  C  C89  1  0.37578000  0.99951000  0.21303000  1.0
  C  C90  1  0.12422000  0.49951000  0.71303000  1.0
  C  C91  1  0.62422000  0.00049000  0.78697000  1.0
  C  C92  1  0.91026000  0.56209000  0.39013000  1.0
  C  C93  1  0.41025000  0.93791000  0.10986000  1.0
  C  C94  1  0.08974000  0.43791000  0.60986000  1.0
  C  C95  1  0.58975000  0.06209000  0.89014000  1.0
  C  C96  1  0.93464000  0.98728000  0.20891000  1.0
  C  C97  1  0.43464000  0.51272000  0.29109000  1.0
  C  C98  1  0.06536000  0.01272000  0.79109000  1.0
  C  C99  1  0.56536000  0.48728000  0.70891000  1.0
  C  C100  1  0.86030000  0.91398000  0.12564000  1.0
  C  C101  1  0.36031000  0.58601000  0.37437000  1.0
  C  C102  1  0.13970000  0.08602000  0.87437000  1.0
  C  C103  1  0.63969000  0.41399000  0.62564000  1.0
  S  S104  1  0.79882000  0.68736000  0.41993000  1.0
  S  S105  1  0.29880000  0.81264000  0.08008000  1.0
  S  S106  1  0.20119000  0.31264000  0.58007000  1.0
  S  S107  1  0.70119000  0.18736000  0.91992000  1.0
  N  N108  1  0.93511000  0.37552000  0.27419000  1.0
  N  N109  1  0.43511000  0.12448000  0.22581000  1.0
  N  N110  1  0.06489000  0.62448000  0.72581000  1.0
  N  N111  1  0.56489000  0.87552000  0.77419000  1.0
  N  N112  1  0.88275000  0.11442000  0.22527000  1.0
  N  N113  1  0.38275000  0.38558000  0.27472000  1.0
  N  N114  1  0.11725000  0.88558000  0.77472000  1.0
  N  N115  1  0.61725000  0.61442000  0.72528000  1.0
  O  O116  1  0.66528000  0.63192000  0.42431000  1.0
  O  O117  1  0.16528000  0.86808000  0.07569000  1.0
  O  O118  1  0.33472000  0.36808000  0.57569000  1.0
  O  O119  1  0.83472000  0.13193000  0.92430000  1.0
  O  O120  1  0.84602000  0.73635000  0.52092000  1.0
  O  O121  1  0.34601000  0.76364000  0.97909000  1.0
  O  O122  1  0.15399000  0.26364000  0.47908000  1.0
  O  O123  1  0.65399000  0.23636000  0.02092000  1.0
  O  O124  1  0.81338000  0.77576000  0.33511000  1.0
  O  O125  1  0.31336000  0.72423000  0.16489000  1.0
  O  O126  1  0.18663000  0.22424000  0.66489000  1.0
  O  O127  1  0.68662000  0.27577000  0.83511000  1.0
  O  O128  1  0.72585000  0.88601000  0.15711000  1.0
  O  O129  1  0.22585000  0.61398000  0.34291000  1.0
  O  O130  1  0.27415000  0.11399000  0.84290000  1.0
  O  O131  1  0.77415000  0.38602000  0.65710000  1.0
