# generated using pymatgen
data_CdH8C12(NO3)2
_symmetry_space_group_name_H-M   'P 1'
_cell_length_a   6.73164000
_cell_length_b   10.18350000
_cell_length_c   10.18350000
_cell_angle_alpha   90.81930000
_cell_angle_beta   91.99100000
_cell_angle_gamma   91.98820000
_symmetry_Int_Tables_number   1
_chemical_formula_structural   CdH8C12(NO3)2
_chemical_formula_sum   'Cd2 H16 C24 N4 O12'
_cell_volume   697.17032887
_cell_formula_units_Z   2
loop_
 _symmetry_equiv_pos_site_id
 _symmetry_equiv_pos_as_xyz
  1  'x, y, z'
loop_
 _atom_site_type_symbol
 _atom_site_label
 _atom_site_symmetry_multiplicity
 _atom_site_fract_x
 _atom_site_fract_y
 _atom_site_fract_z
 _atom_site_occupancy
  Cd  Cd0  1  0.25000000  0.42334000  0.57665000  1.0
  Cd  Cd1  1  0.75000000  0.57665000  0.42335000  1.0
  H  H2  1  0.09530000  0.78034000  0.34694000  1.0
  H  H3  1  0.59531000  0.34695000  0.78034000  1.0
  H  H4  1  0.90470000  0.21966000  0.65308000  1.0
  H  H5  1  0.40468000  0.65305000  0.21965000  1.0
  H  H6  1  0.21884000  0.69621000  0.73763000  1.0
  H  H7  1  0.71881000  0.73764000  0.69621000  1.0
  H  H8  1  0.78117000  0.30379000  0.26238000  1.0
  H  H9  1  0.28120000  0.26237000  0.30379000  1.0
  H  H10  1  0.21168000  0.01791000  0.38137000  1.0
  H  H11  1  0.71168000  0.38139000  0.01791000  1.0
  H  H12  1  0.78831000  0.98210000  0.61864000  1.0
  H  H13  1  0.28831000  0.61861000  0.98208000  1.0
  H  H14  1  0.34946000  0.93269000  0.78624000  1.0
  H  H15  1  0.84943000  0.78626000  0.93268000  1.0
  H  H16  1  0.65055000  0.06731000  0.21377000  1.0
  H  H17  1  0.15057000  0.21374000  0.06731000  1.0
  C  C18  1  0.28747000  0.99359000  0.58730000  1.0
  C  C19  1  0.78746000  0.58733000  0.99358000  1.0
  C  C20  1  0.71253000  0.00642000  0.41271000  1.0
  C  C21  1  0.21253000  0.41267000  0.00641000  1.0
  C  C22  1  0.15332000  0.82108000  0.44105000  1.0
  C  C23  1  0.65332000  0.44106000  0.82108000  1.0
  C  C24  1  0.84667000  0.17893000  0.55896000  1.0
  C  C25  1  0.34668000  0.55894000  0.17892000  1.0
  C  C26  1  0.22486000  0.77394000  0.66526000  1.0
  C  C27  1  0.72484000  0.66527000  0.77394000  1.0
  C  C28  1  0.77515000  0.22605000  0.33475000  1.0
  C  C29  1  0.27515000  0.33474000  0.22605000  1.0
  C  C30  1  0.34693000  0.13611000  0.61400000  1.0
  C  C31  1  0.84692000  0.61402000  0.13611000  1.0
  C  C32  1  0.65307000  0.86390000  0.38600000  1.0
  C  C33  1  0.15307000  0.38597000  0.86389000  1.0
  C  C34  1  0.21725000  0.95017000  0.46280000  1.0
  C  C35  1  0.71724000  0.46282000  0.95017000  1.0
  C  C36  1  0.78276000  0.04984000  0.53721000  1.0
  C  C37  1  0.28275000  0.53718000  0.04982000  1.0
  C  C38  1  0.29373000  0.90192000  0.68847000  1.0
  C  C39  1  0.79370000  0.68849000  0.90192000  1.0
  C  C40  1  0.70628000  0.09808000  0.31154000  1.0
  C  C41  1  0.20630000  0.31151000  0.09808000  1.0
  N  N42  1  0.15399000  0.73667000  0.54288000  1.0
  N  N43  1  0.65398000  0.54288000  0.73667000  1.0
  N  N44  1  0.84601000  0.26333000  0.45713000  1.0
  N  N45  1  0.34601000  0.45712000  0.26332000  1.0
  O  O46  1  0.44162000  0.16773000  0.71765000  1.0
  O  O47  1  0.94160000  0.71768000  0.16774000  1.0
  O  O48  1  0.55839000  0.83228000  0.28235000  1.0
  O  O49  1  0.05840000  0.28231000  0.83226000  1.0
  O  O50  1  0.07849000  0.61548000  0.52319000  1.0
  O  O51  1  0.57849000  0.52319000  0.61548000  1.0
  O  O52  1  0.92151000  0.38452000  0.47682000  1.0
  O  O53  1  0.42151000  0.47681000  0.38451000  1.0
  O  O54  1  0.28727000  0.21426000  0.52239000  1.0
  O  O55  1  0.78728000  0.52241000  0.21426000  1.0
  O  O56  1  0.71274000  0.78574000  0.47762000  1.0
  O  O57  1  0.21271000  0.47758000  0.78573000  1.0
