# generated using pymatgen
data_ZnH12C26N3(ClO)4
_symmetry_space_group_name_H-M   'P 1'
_cell_length_a   18.76410000
_cell_length_b   19.38640000
_cell_length_c   19.60140000
_cell_angle_alpha   88.37530000
_cell_angle_beta   89.82980000
_cell_angle_gamma   89.77370000
_symmetry_Int_Tables_number   1
_chemical_formula_structural   ZnH12C26N3(ClO)4
_chemical_formula_sum   'Zn2 H24 C52 N6 Cl8 O8'
_cell_volume   7127.41764881
_cell_formula_units_Z   2
loop_
 _symmetry_equiv_pos_site_id
 _symmetry_equiv_pos_as_xyz
  1  'x, y, z'
loop_
 _atom_site_type_symbol
 _atom_site_label
 _atom_site_symmetry_multiplicity
 _atom_site_fract_x
 _atom_site_fract_y
 _atom_site_fract_z
 _atom_site_occupancy
  Zn  Zn0  1  0.42141000  0.50020000  0.50022000  1.0
  Zn  Zn1  1  0.57859000  0.49979000  0.49978000  1.0
  H  H2  1  0.38548000  0.72015000  0.49766000  1.0
  H  H3  1  0.38528000  0.49699000  0.15716000  1.0
  H  H4  1  0.61473000  0.50373000  0.15642000  1.0
  H  H5  1  0.38528000  0.49628000  0.84359000  1.0
  H  H6  1  0.41789000  0.42254000  0.93951000  1.0
  H  H7  1  0.58211000  0.57746000  0.06049000  1.0
  H  H8  1  0.41782000  0.42288000  0.06565000  1.0
  H  H9  1  0.58218000  0.57712000  0.93435000  1.0
  H  H10  1  0.16595000  0.41977000  0.57876000  1.0
  H  H11  1  0.83405000  0.58023000  0.42124000  1.0
  H  H12  1  0.16592000  0.58025000  0.42100000  1.0
  H  H13  1  0.61451000  0.27985000  0.50233000  1.0
  H  H14  1  0.83408000  0.41976000  0.57901000  1.0
  H  H15  1  0.06591000  0.51680000  0.39068000  1.0
  H  H16  1  0.93409000  0.48321000  0.60931000  1.0
  H  H17  1  0.06561000  0.48327000  0.60918000  1.0
  H  H18  1  0.93439000  0.51674000  0.39082000  1.0
  H  H19  1  0.38562000  0.28086000  0.49693000  1.0
  H  H20  1  0.61437000  0.71914000  0.50305000  1.0
  H  H21  1  0.61417000  0.50378000  0.71544000  1.0
  H  H22  1  0.38583000  0.49622000  0.28456000  1.0
  H  H23  1  0.61409000  0.50324000  0.28380000  1.0
  H  H24  1  0.38592000  0.49676000  0.71621000  1.0
  H  H25  1  0.61473000  0.50301000  0.84285000  1.0
  C  C26  1  0.49997000  0.49929000  0.36809000  1.0
  C  C27  1  0.54686000  0.54230000  0.96307000  1.0
  C  C28  1  0.49999000  0.50020000  0.07244000  1.0
  C  C29  1  0.50002000  0.49980000  0.92756000  1.0
  C  C30  1  0.26665000  0.45807000  0.54250000  1.0
  C  C31  1  0.73335000  0.54194000  0.45751000  1.0
  C  C32  1  0.26663000  0.54221000  0.45776000  1.0
  C  C33  1  0.73337000  0.45779000  0.54225000  1.0
  C  C34  1  0.19245000  0.45628000  0.54415000  1.0
  C  C35  1  0.80755000  0.54372000  0.45586000  1.0
  C  C36  1  0.19243000  0.54381000  0.45575000  1.0
  C  C37  1  0.50003000  0.50070000  0.63192000  1.0
  C  C38  1  0.80757000  0.45620000  0.54426000  1.0
  C  C39  1  0.15373000  0.50003000  0.49990000  1.0
  C  C40  1  0.84627000  0.49998000  0.50010000  1.0
  C  C41  1  0.03712000  0.51050000  0.43887000  1.0
  C  C42  1  0.96288000  0.48950000  0.56113000  1.0
  C  C43  1  0.03695000  0.48953000  0.56106000  1.0
  C  C44  1  0.96305000  0.51047000  0.43895000  1.0
  C  C45  1  0.92482000  0.49998000  0.50008000  1.0
  C  C46  1  0.07518000  0.50002000  0.49992000  1.0
  C  C47  1  0.49999000  0.63466000  0.50050000  1.0
  C  C48  1  0.50000000  0.49969000  0.85226000  1.0
  C  C49  1  0.50000000  0.36534000  0.49950000  1.0
  C  C50  1  0.43532000  0.74859000  0.49890000  1.0
  C  C51  1  0.56467000  0.25141000  0.50108000  1.0
  C  C52  1  0.43547000  0.25199000  0.49836000  1.0
  C  C53  1  0.56452000  0.74802000  0.50163000  1.0
  C  C54  1  0.43576000  0.82039000  0.49854000  1.0
  C  C55  1  0.56423000  0.17962000  0.50144000  1.0
  C  C56  1  0.43595000  0.18018000  0.49871000  1.0
  C  C57  1  0.56405000  0.81982000  0.50127000  1.0
  C  C58  1  0.49990000  0.85761000  0.49980000  1.0
  C  C59  1  0.50000000  0.50030000  0.14775000  1.0
  C  C60  1  0.50009000  0.14240000  0.50018000  1.0
  C  C61  1  0.49992000  0.71245000  0.50052000  1.0
  C  C62  1  0.50007000  0.28755000  0.49947000  1.0
  C  C63  1  0.50008000  0.06597000  0.50015000  1.0
  C  C64  1  0.49992000  0.93403000  0.49983000  1.0
  C  C65  1  0.56443000  0.50250000  0.74429000  1.0
  C  C66  1  0.43558000  0.49749000  0.25572000  1.0
  C  C67  1  0.56434000  0.50224000  0.25528000  1.0
  C  C68  1  0.43566000  0.49776000  0.74473000  1.0
  C  C69  1  0.56434000  0.50243000  0.81525000  1.0
  C  C70  1  0.50005000  0.50042000  0.70831000  1.0
  C  C71  1  0.43567000  0.49756000  0.18475000  1.0
  C  C72  1  0.56432000  0.50291000  0.18430000  1.0
  C  C73  1  0.43569000  0.49709000  0.81571000  1.0
  C  C74  1  0.49996000  0.49957000  0.29169000  1.0
  C  C75  1  0.45318000  0.45751000  0.96593000  1.0
  C  C76  1  0.54683000  0.54249000  0.03408000  1.0
  C  C77  1  0.45315000  0.45770000  0.03693000  1.0
  N  N78  1  0.52446000  0.96748000  0.44327000  1.0
  N  N79  1  0.47554000  0.03253000  0.55670000  1.0
  N  N80  1  0.52455000  0.03581000  0.44343000  1.0
  N  N81  1  0.47545000  0.96419000  0.55654000  1.0
  N  N82  1  0.30467000  0.50021000  0.50022000  1.0
  N  N83  1  0.69533000  0.49980000  0.49979000  1.0
  Cl  Cl84  1  0.35530000  0.86442000  0.49432000  1.0
  Cl  Cl85  1  0.64469000  0.13558000  0.50567000  1.0
  Cl  Cl86  1  0.35545000  0.13697000  0.49521000  1.0
  Cl  Cl87  1  0.64454000  0.86303000  0.50475000  1.0
  Cl  Cl88  1  0.31125000  0.40290000  0.59725000  1.0
  Cl  Cl89  1  0.68875000  0.59711000  0.40277000  1.0
  Cl  Cl90  1  0.31124000  0.59755000  0.40328000  1.0
  Cl  Cl91  1  0.68876000  0.40245000  0.59673000  1.0
  O  O92  1  0.43942000  0.49926000  0.39772000  1.0
  O  O93  1  0.56058000  0.50074000  0.60228000  1.0
  O  O94  1  0.43945000  0.50051000  0.60265000  1.0
  O  O95  1  0.56055000  0.49947000  0.39736000  1.0
  O  O96  1  0.43938000  0.60566000  0.50037000  1.0
  O  O97  1  0.56061000  0.39434000  0.49965000  1.0
  O  O98  1  0.43932000  0.39461000  0.49981000  1.0
  O  O99  1  0.56067000  0.60539000  0.50019000  1.0
