# generated using pymatgen
data_AgH14C12S(NO)3
_symmetry_space_group_name_H-M   'P 1'
_cell_length_a   7.01000000
_cell_length_b   12.69150000
_cell_length_c   14.55840000
_cell_angle_alpha   89.99980000
_cell_angle_beta   89.99980000
_cell_angle_gamma   85.81810000
_symmetry_Int_Tables_number   1
_chemical_formula_structural   AgH14C12S(NO)3
_chemical_formula_sum   'Ag4 H56 C48 S4 N12 O12'
_cell_volume   1291.77476527
_cell_formula_units_Z   4
loop_
 _symmetry_equiv_pos_site_id
 _symmetry_equiv_pos_as_xyz
  1  'x, y, z'
loop_
 _atom_site_type_symbol
 _atom_site_label
 _atom_site_symmetry_multiplicity
 _atom_site_fract_x
 _atom_site_fract_y
 _atom_site_fract_z
 _atom_site_occupancy
  Ag  Ag0  1  0.17732000  0.05311000  0.20990000  1.0
  Ag  Ag1  1  0.32268000  0.44689000  0.70990000  1.0
  Ag  Ag2  1  0.82267000  0.94689000  0.79010000  1.0
  Ag  Ag3  1  0.67733000  0.55311000  0.29010000  1.0
  H  H4  1  0.50055000  0.05469000  0.07322000  1.0
  H  H5  1  0.99945000  0.44531000  0.57322000  1.0
  H  H6  1  0.49943000  0.94531000  0.92678000  1.0
  H  H7  1  0.00056000  0.55470000  0.42678000  1.0
  H  H8  1  0.86230000  0.06277000  0.07566000  1.0
  H  H9  1  0.63770000  0.43723000  0.57566000  1.0
  H  H10  1  0.13769000  0.93723000  0.92434000  1.0
  H  H11  1  0.36231000  0.56277000  0.42434000  1.0
  H  H12  1  0.01600000  0.09854000  0.37747000  1.0
  H  H13  1  0.48401000  0.40146000  0.87748000  1.0
  H  H14  1  0.98400000  0.90145000  0.62252000  1.0
  H  H15  1  0.51600000  0.59854000  0.12253000  1.0
  H  H16  1  0.91230000  0.98213000  0.41508000  1.0
  H  H17  1  0.58771000  0.51787000  0.91509000  1.0
  H  H18  1  0.08770000  0.01787000  0.58491000  1.0
  H  H19  1  0.41230000  0.48213000  0.08491000  1.0
  H  H20  1  0.79415000  0.10768000  0.43788000  1.0
  H  H21  1  0.70585000  0.39231000  0.93788000  1.0
  H  H22  1  0.20584000  0.89231000  0.56212000  1.0
  H  H23  1  0.29416000  0.60769000  0.06212000  1.0
  H  H24  1  0.32069000  0.01333000  0.36765000  1.0
  H  H25  1  0.17931000  0.48667000  0.86765000  1.0
  H  H26  1  0.67930000  0.98667000  0.63235000  1.0
  H  H27  1  0.82070000  0.51333000  0.13234000  1.0
  H  H28  1  0.48051000  0.08836000  0.43176000  1.0
  H  H29  1  0.01949000  0.41164000  0.93176000  1.0
  H  H30  1  0.51948000  0.91164000  0.56823000  1.0
  H  H31  1  0.98052000  0.58836000  0.06824000  1.0
  H  H32  1  0.53303000  0.95041000  0.41552000  1.0
  H  H33  1  0.96697000  0.54958000  0.91553000  1.0
  H  H34  1  0.46696000  0.04958000  0.58447000  1.0
  H  H35  1  0.03304000  0.45041000  0.08447000  1.0
  H  H36  1  0.78160000  0.17787000  0.92534000  1.0
  H  H37  1  0.71839000  0.32213000  0.42534000  1.0
  H  H38  1  0.21841000  0.82214000  0.07466000  1.0
  H  H39  1  0.28160000  0.67787000  0.57466000  1.0
  H  H40  1  0.65244000  0.17751000  0.76744000  1.0
  H  H41  1  0.84756000  0.32249000  0.26744000  1.0
  H  H42  1  0.34755000  0.82249000  0.23257000  1.0
  H  H43  1  0.15244000  0.67750000  0.73256000  1.0
  H  H44  1  0.22182000  0.20218000  0.65894000  1.0
  H  H45  1  0.27818000  0.29782000  0.15894000  1.0
  H  H46  1  0.77817000  0.79782000  0.34106000  1.0
  H  H47  1  0.72182000  0.70218000  0.84106000  1.0
  H  H48  1  0.34750000  0.20738000  0.81781000  1.0
  H  H49  1  0.15250000  0.29262000  0.31781000  1.0
  H  H50  1  0.65251000  0.79262000  0.18219000  1.0
  H  H51  1  0.84749000  0.70738000  0.68219000  1.0
  H  H52  1  0.71539000  0.20282000  0.60089000  1.0
  H  H53  1  0.78460000  0.29718000  0.10090000  1.0
  H  H54  1  0.28460000  0.79718000  0.39911000  1.0
  H  H55  1  0.21539000  0.70282000  0.89910000  1.0
  H  H56  1  0.94766000  0.21344000  0.56287000  1.0
  H  H57  1  0.55233000  0.28656000  0.06287000  1.0
  H  H58  1  0.05233000  0.78656000  0.43713000  1.0
  H  H59  1  0.44767000  0.71344000  0.93713000  1.0
  C  C60  1  0.57770000  0.04273000  0.29640000  1.0
  C  C61  1  0.92230000  0.45728000  0.79640000  1.0
  C  C62  1  0.42228000  0.95727000  0.70360000  1.0
  C  C63  1  0.07771000  0.54273000  0.20360000  1.0
  C  C64  1  0.58212000  0.05285000  0.13688000  1.0
  C  C65  1  0.91789000  0.44715000  0.63688000  1.0
  C  C66  1  0.41787000  0.94714000  0.86312000  1.0
  C  C67  1  0.08212000  0.55286000  0.36312000  1.0
  C  C68  1  0.77803000  0.06051000  0.13830000  1.0
  C  C69  1  0.72197000  0.43948000  0.63831000  1.0
  C  C70  1  0.22196000  0.93949000  0.86170000  1.0
  C  C71  1  0.27803000  0.56052000  0.36170000  1.0
  C  C72  1  0.77580000  0.05658000  0.29805000  1.0
  C  C73  1  0.72420000  0.44342000  0.79806000  1.0
  C  C74  1  0.22419000  0.94342000  0.70195000  1.0
  C  C75  1  0.27581000  0.55658000  0.20195000  1.0
  C  C76  1  0.88019000  0.06192000  0.38683000  1.0
  C  C77  1  0.61982000  0.43808000  0.88683000  1.0
  C  C78  1  0.11981000  0.93808000  0.61317000  1.0
  C  C79  1  0.38019000  0.56192000  0.11317000  1.0
  C  C80  1  0.47194000  0.02326000  0.38253000  1.0
  C  C81  1  0.02806000  0.47674000  0.88253000  1.0
  C  C82  1  0.52805000  0.97674000  0.61747000  1.0
  C  C83  1  0.97195000  0.52326000  0.11747000  1.0
  C  C84  1  0.07443000  0.19283000  0.88170000  1.0
  C  C85  1  0.42558000  0.30718000  0.38170000  1.0
  C  C86  1  0.92558000  0.80717000  0.11830000  1.0
  C  C87  1  0.57442000  0.69283000  0.61830000  1.0
  C  C88  1  0.87888000  0.18293000  0.86725000  1.0
  C  C89  1  0.62112000  0.31707000  0.36725000  1.0
  C  C90  1  0.12112000  0.81708000  0.13275000  1.0
  C  C91  1  0.37888000  0.68293000  0.63275000  1.0
  C  C92  1  0.80593000  0.18110000  0.77814000  1.0
  C  C93  1  0.69407000  0.31890000  0.27814000  1.0
  C  C94  1  0.19407000  0.81890000  0.22186000  1.0
  C  C95  1  0.30593000  0.68110000  0.72186000  1.0
  C  C96  1  0.92709000  0.18945000  0.70078000  1.0
  C  C97  1  0.57291000  0.31055000  0.20078000  1.0
  C  C98  1  0.07291000  0.81054000  0.29922000  1.0
  C  C99  1  0.42708000  0.68945000  0.79922000  1.0
  C  C100  1  0.12486000  0.19661000  0.71699000  1.0
  C  C101  1  0.37515000  0.30339000  0.21699000  1.0
  C  C102  1  0.87514000  0.80339000  0.28301000  1.0
  C  C103  1  0.62485000  0.69661000  0.78301000  1.0
  C  C104  1  0.19592000  0.19899000  0.80583000  1.0
  C  C105  1  0.30408000  0.30101000  0.30583000  1.0
  C  C106  1  0.80408000  0.80101000  0.19417000  1.0
  C  C107  1  0.69591000  0.69899000  0.69417000  1.0
  S  S108  1  0.17043000  0.19816000  0.99424000  1.0
  S  S109  1  0.32957000  0.30185000  0.49423000  1.0
  S  S110  1  0.82958000  0.80185000  0.00576000  1.0
  S  S111  1  0.67043000  0.69816000  0.50577000  1.0
  N  N112  1  0.85857000  0.18878000  0.61292000  1.0
  N  N113  1  0.64143000  0.31122000  0.11292000  1.0
  N  N114  1  0.14143000  0.81121000  0.38708000  1.0
  N  N115  1  0.35856000  0.68878000  0.88708000  1.0
  N  N116  1  0.87234000  0.06494000  0.21859000  1.0
  N  N117  1  0.62766000  0.43506000  0.71859000  1.0
  N  N118  1  0.12765000  0.93506000  0.78141000  1.0
  N  N119  1  0.37235000  0.56494000  0.28141000  1.0
  N  N120  1  0.48365000  0.04492000  0.21556000  1.0
  N  N121  1  0.01635000  0.45508000  0.71556000  1.0
  N  N122  1  0.51634000  0.95508000  0.78444000  1.0
  N  N123  1  0.98365000  0.54493000  0.28444000  1.0
  O  O124  1  0.17462000  0.08986000  0.03222000  1.0
  O  O125  1  0.32539000  0.41014000  0.53221000  1.0
  O  O126  1  0.82539000  0.91014000  0.96778000  1.0
  O  O127  1  0.67461000  0.58986000  0.46779000  1.0
  O  O128  1  0.03932000  0.27255000  0.04637000  1.0
  O  O129  1  0.46068000  0.22745000  0.54637000  1.0
  O  O130  1  0.96069000  0.72745000  0.95363000  1.0
  O  O131  1  0.53932000  0.77255000  0.45363000  1.0
  O  O132  1  0.36291000  0.23553000  0.98286000  1.0
  O  O133  1  0.13709000  0.26447000  0.48286000  1.0
  O  O134  1  0.63709000  0.76447000  0.01714000  1.0
  O  O135  1  0.86291000  0.73553000  0.51714000  1.0
