# generated using pymatgen
data_KCuH24C12(BrO3)2
_symmetry_space_group_name_H-M   'P 1'
_cell_length_a   8.00322000
_cell_length_b   8.73699000
_cell_length_c   13.80410000
_cell_angle_alpha   103.22800000
_cell_angle_beta   89.99970000
_cell_angle_gamma   89.99990000
_symmetry_Int_Tables_number   1
_chemical_formula_structural   KCuH24C12(BrO3)2
_chemical_formula_sum   'K2 Cu2 H48 C24 Br4 O12'
_cell_volume   939.62813176
_cell_formula_units_Z   2
loop_
 _symmetry_equiv_pos_site_id
 _symmetry_equiv_pos_as_xyz
  1  'x, y, z'
loop_
 _atom_site_type_symbol
 _atom_site_label
 _atom_site_symmetry_multiplicity
 _atom_site_fract_x
 _atom_site_fract_y
 _atom_site_fract_z
 _atom_site_occupancy
  K  K0  1  0.99999000  0.00000000  0.00000000  1.0
  K  K1  1  0.50000000  0.50000000  0.50000000  1.0
  Cu  Cu2  1  0.49999000  0.00001000  0.00001000  1.0
  Cu  Cu3  1  0.00000000  0.50000000  0.50000000  1.0
  H  H4  1  0.92818000  0.69528000  0.74547000  1.0
  H  H5  1  0.42818000  0.80472000  0.75453000  1.0
  H  H6  1  0.07182000  0.30472000  0.25453000  1.0
  H  H7  1  0.57182000  0.19528000  0.24547000  1.0
  H  H8  1  0.13359000  0.66169000  0.69432000  1.0
  H  H9  1  0.63359000  0.83831000  0.80568000  1.0
  H  H10  1  0.86642000  0.33831000  0.30568000  1.0
  H  H11  1  0.36641000  0.16169000  0.19432000  1.0
  H  H12  1  0.18670000  0.95496000  0.74600000  1.0
  H  H13  1  0.68670000  0.54505000  0.75400000  1.0
  H  H14  1  0.81330000  0.04504000  0.25400000  1.0
  H  H15  1  0.31330000  0.45496000  0.24600000  1.0
  H  H16  1  0.02956000  0.89648000  0.65230000  1.0
  H  H17  1  0.52956000  0.60352000  0.84770000  1.0
  H  H18  1  0.97044000  0.10352000  0.34770000  1.0
  H  H19  1  0.47045000  0.39648000  0.15230000  1.0
  H  H20  1  0.90614000  0.16149000  0.70482000  1.0
  H  H21  1  0.40614000  0.33851000  0.79518000  1.0
  H  H22  1  0.09386000  0.83851000  0.29518000  1.0
  H  H23  1  0.59387000  0.66149000  0.20482000  1.0
  H  H24  1  0.07072000  0.20839000  0.79427000  1.0
  H  H25  1  0.57072000  0.29161000  0.70573000  1.0
  H  H26  1  0.92929000  0.79161000  0.20573000  1.0
  H  H27  1  0.42929000  0.70838000  0.29427000  1.0
  H  H28  1  0.80419000  0.37088000  0.83409000  1.0
  H  H29  1  0.30418000  0.12912000  0.66591000  1.0
  H  H30  1  0.19581000  0.62911000  0.16591000  1.0
  H  H31  1  0.69582000  0.87088000  0.33409000  1.0
  H  H32  1  0.70177000  0.19880000  0.85367000  1.0
  H  H33  1  0.20177000  0.30121000  0.64634000  1.0
  H  H34  1  0.29823000  0.80120000  0.14633000  1.0
  H  H35  1  0.79823000  0.69879000  0.35367000  1.0
  H  H36  1  0.67000000  0.33275000  0.02620000  1.0
  H  H37  1  0.17000000  0.16725000  0.47381000  1.0
  H  H38  1  0.33000000  0.66725000  0.97380000  1.0
  H  H39  1  0.83000000  0.83275000  0.52620000  1.0
  H  H40  1  0.78486000  0.50066000  0.00901000  1.0
  H  H41  1  0.28486000  0.99934000  0.49099000  1.0
  H  H42  1  0.21514000  0.49934000  0.99099000  1.0
  H  H43  1  0.71514000  0.00066000  0.50901000  1.0
  H  H44  1  0.01064000  0.43812000  0.12168000  1.0
  H  H45  1  0.51063000  0.06189000  0.37832000  1.0
  H  H46  1  0.98937000  0.56189000  0.87832000  1.0
  H  H47  1  0.48936000  0.93812000  0.62168000  1.0
  H  H48  1  0.81297000  0.48767000  0.18148000  1.0
  H  H49  1  0.31296000  0.01233000  0.31852000  1.0
  H  H50  1  0.18704000  0.51233000  0.81852000  1.0
  H  H51  1  0.68703000  0.98767000  0.68148000  1.0
  C  C52  1  0.05729000  0.74145000  0.75111000  1.0
  C  C53  1  0.55729000  0.75855000  0.74889000  1.0
  C  C54  1  0.94272000  0.25855000  0.24889000  1.0
  C  C55  1  0.44271000  0.24145000  0.25111000  1.0
  C  C56  1  0.06013000  0.90391000  0.73128000  1.0
  C  C57  1  0.56013000  0.59609000  0.76872000  1.0
  C  C58  1  0.93987000  0.09609000  0.26872000  1.0
  C  C59  1  0.43987000  0.40391000  0.23128000  1.0
  C  C60  1  0.94331000  0.15892000  0.78152000  1.0
  C  C61  1  0.44332000  0.34108000  0.71848000  1.0
  C  C62  1  0.05669000  0.84108000  0.21848000  1.0
  C  C63  1  0.55669000  0.65891000  0.28152000  1.0
  C  C64  1  0.82464000  0.25732000  0.85480000  1.0
  C  C65  1  0.32464000  0.24268000  0.64520000  1.0
  C  C66  1  0.17536000  0.74267000  0.14520000  1.0
  C  C67  1  0.67536000  0.75732000  0.35480000  1.0
  C  C68  1  0.79660000  0.38317000  0.02552000  1.0
  C  C69  1  0.29660000  0.11683000  0.47448000  1.0
  C  C70  1  0.20340000  0.61683000  0.97448000  1.0
  C  C71  1  0.70340000  0.88317000  0.52552000  1.0
  C  C72  1  0.87984000  0.39896000  0.12512000  1.0
  C  C73  1  0.37983000  0.10104000  0.37488000  1.0
  C  C74  1  0.12017000  0.60104000  0.87488000  1.0
  C  C75  1  0.62016000  0.89896000  0.62512000  1.0
  Br  Br76  1  0.34703000  0.18381000  0.95233000  1.0
  Br  Br77  1  0.84702000  0.31620000  0.54768000  1.0
  Br  Br78  1  0.65296000  0.81620000  0.04769000  1.0
  Br  Br79  1  0.15298000  0.68380000  0.45233000  1.0
  O  O80  1  0.12409000  0.74966000  0.84829000  1.0
  O  O81  1  0.62408000  0.75034000  0.65171000  1.0
  O  O82  1  0.87592000  0.25034000  0.15171000  1.0
  O  O83  1  0.37591000  0.24966000  0.34829000  1.0
  O  O84  1  0.94220000  0.00139000  0.79517000  1.0
  O  O85  1  0.44220000  0.49861000  0.70483000  1.0
  O  O86  1  0.05780000  0.99860000  0.20483000  1.0
  O  O87  1  0.55780000  0.50139000  0.29517000  1.0
  O  O88  1  0.89693000  0.28252000  0.95161000  1.0
  O  O89  1  0.39693000  0.21748000  0.54839000  1.0
  O  O90  1  0.10307000  0.71748000  0.04839000  1.0
  O  O91  1  0.60307000  0.78252000  0.45161000  1.0
