# generated using pymatgen
data_MoH4C7NO4
_symmetry_space_group_name_H-M   'P 1'
_cell_length_a   3.93947000
_cell_length_b   9.59496000
_cell_length_c   10.29710000
_cell_angle_alpha   74.93130000
_cell_angle_beta   86.60400000
_cell_angle_gamma   80.44820000
_symmetry_Int_Tables_number   1
_chemical_formula_structural   MoH4C7NO4
_chemical_formula_sum   'Mo2 H8 C14 N2 O8'
_cell_volume   370.57366960
_cell_formula_units_Z   2
loop_
 _symmetry_equiv_pos_site_id
 _symmetry_equiv_pos_as_xyz
  1  'x, y, z'
loop_
 _atom_site_type_symbol
 _atom_site_label
 _atom_site_symmetry_multiplicity
 _atom_site_fract_x
 _atom_site_fract_y
 _atom_site_fract_z
 _atom_site_occupancy
  Mo  Mo0  1  0.11265000  0.16859000  0.26428000  1.0
  Mo  Mo1  1  0.88732000  0.83141000  0.73572000  1.0
  H  H2  1  0.76540000  0.44209000  0.53754000  1.0
  H  H3  1  0.23459000  0.55791000  0.46246000  1.0
  H  H4  1  0.52423000  0.55466000  0.72258000  1.0
  H  H5  1  0.47578000  0.44534000  0.27742000  1.0
  H  H6  1  0.43994000  0.39556000  0.95141000  1.0
  H  H7  1  0.56008000  0.60444000  0.04859000  1.0
  H  H8  1  0.61869000  0.12529000  0.99607000  1.0
  H  H9  1  0.38132000  0.87471000  0.00393000  1.0
  C  C10  1  0.92241000  0.16111000  0.54640000  1.0
  C  C11  1  0.07758000  0.83888000  0.45361000  1.0
  C  C12  1  0.81378000  0.22196000  0.66022000  1.0
  C  C13  1  0.18621000  0.77803000  0.33977000  1.0
  C  C14  1  0.72965000  0.37449000  0.63855000  1.0
  C  C15  1  0.27035000  0.62551000  0.36145000  1.0
  C  C16  1  0.59644000  0.43691000  0.74179000  1.0
  C  C17  1  0.40356000  0.56309000  0.25820000  1.0
  C  C18  1  0.55082000  0.34754000  0.87053000  1.0
  C  C19  1  0.44919000  0.65246000  0.12947000  1.0
  C  C20  1  0.77531000  0.13259000  0.79211000  1.0
  C  C21  1  0.22469000  0.86741000  0.20789000  1.0
  C  C22  1  0.64538000  0.19662000  0.89608000  1.0
  C  C23  1  0.35462000  0.80339000  0.10392000  1.0
  N  N24  1  0.94413000  0.01959000  0.55814000  1.0
  N  N25  1  0.05587000  0.98040000  0.44186000  1.0
  O  O26  1  0.98693000  0.24866000  0.42903000  1.0
  O  O27  1  0.01307000  0.75134000  0.57097000  1.0
  O  O28  1  0.86122000  0.98502000  0.82436000  1.0
  O  O29  1  0.13877000  0.01498000  0.17564000  1.0
  O  O30  1  0.55740000  0.15770000  0.28233000  1.0
  O  O31  1  0.44261000  0.84230000  0.71767000  1.0
  O  O32  1  0.99763000  0.32532000  0.14159000  1.0
  O  O33  1  0.00236000  0.67468000  0.85841000  1.0
