# generated using pymatgen
data_CuH8C6IN2
_symmetry_space_group_name_H-M   'P 1'
_cell_length_a   10.91880000
_cell_length_b   11.75480000
_cell_length_c   12.45620000
_cell_angle_alpha   90.00000000
_cell_angle_beta   91.03670000
_cell_angle_gamma   90.00000000
_symmetry_Int_Tables_number   1
_chemical_formula_structural   CuH8C6IN2
_chemical_formula_sum   'Cu8 H64 C48 I8 N16'
_cell_volume   1598.47052738
_cell_formula_units_Z   8
loop_
 _symmetry_equiv_pos_site_id
 _symmetry_equiv_pos_as_xyz
  1  'x, y, z'
loop_
 _atom_site_type_symbol
 _atom_site_label
 _atom_site_symmetry_multiplicity
 _atom_site_fract_x
 _atom_site_fract_y
 _atom_site_fract_z
 _atom_site_occupancy
  Cu  Cu0  1  0.86650000  0.27242000  0.35252000  1.0
  Cu  Cu1  1  0.36650000  0.22758000  0.85252000  1.0
  Cu  Cu2  1  0.13350000  0.72758000  0.64748000  1.0
  Cu  Cu3  1  0.63350000  0.77242000  0.14748000  1.0
  Cu  Cu4  1  0.11178000  0.22274000  0.34924000  1.0
  Cu  Cu5  1  0.61178000  0.27726000  0.84924000  1.0
  Cu  Cu6  1  0.88822000  0.77725000  0.65076000  1.0
  Cu  Cu7  1  0.38822000  0.72274000  0.15076000  1.0
  H  H8  1  0.62425000  0.43505000  0.66561000  1.0
  H  H9  1  0.12425000  0.06495000  0.16561000  1.0
  H  H10  1  0.37575000  0.56495000  0.33439000  1.0
  H  H11  1  0.87575000  0.93505000  0.83439000  1.0
  H  H12  1  0.79360000  0.12615000  0.73170000  1.0
  H  H13  1  0.29360000  0.37386000  0.23171000  1.0
  H  H14  1  0.20640000  0.87386000  0.26830000  1.0
  H  H15  1  0.70640000  0.62615000  0.76830000  1.0
  H  H16  1  0.87852000  0.12291000  0.54628000  1.0
  H  H17  1  0.37852000  0.37709000  0.04629000  1.0
  H  H18  1  0.12148000  0.87709000  0.45371000  1.0
  H  H19  1  0.62148000  0.62291000  0.95372000  1.0
  H  H20  1  0.63884000  0.42289000  0.39067000  1.0
  H  H21  1  0.13884000  0.07711000  0.89067000  1.0
  H  H22  1  0.36116000  0.57711000  0.60933000  1.0
  H  H23  1  0.86116000  0.92289000  0.10933000  1.0
  H  H24  1  0.78496000  0.47834000  0.41454000  1.0
  H  H25  1  0.28496000  0.02166000  0.91454000  1.0
  H  H26  1  0.21505000  0.52166000  0.58546000  1.0
  H  H27  1  0.71505000  0.97834000  0.08546000  1.0
  H  H28  1  0.62140000  0.62511000  0.43595000  1.0
  H  H29  1  0.12140000  0.87489000  0.93595000  1.0
  H  H30  1  0.37861000  0.37489000  0.56405000  1.0
  H  H31  1  0.87861000  0.12511000  0.06405000  1.0
  H  H32  1  0.70830000  0.60679000  0.55738000  1.0
  H  H33  1  0.20830000  0.89321000  0.05737000  1.0
  H  H34  1  0.29170000  0.39321000  0.44262000  1.0
  H  H35  1  0.79170000  0.10679000  0.94262000  1.0
  H  H36  1  0.55837000  0.54966000  0.54462000  1.0
  H  H37  1  0.05836000  0.95034000  0.04462000  1.0
  H  H38  1  0.44164000  0.45034000  0.45538000  1.0
  H  H39  1  0.94164000  0.04966000  0.95538000  1.0
  H  H40  1  0.89820000  0.41152000  0.15536000  1.0
  H  H41  1  0.39820000  0.08848000  0.65536000  1.0
  H  H42  1  0.10180000  0.58848000  0.84464000  1.0
  H  H43  1  0.60180000  0.91152000  0.34464000  1.0
  H  H44  1  0.63767000  0.17497000  0.24657000  1.0
  H  H45  1  0.13767000  0.32504000  0.74657000  1.0
  H  H46  1  0.36233000  0.82503000  0.75343000  1.0
  H  H47  1  0.86233000  0.67496000  0.25343000  1.0
  H  H48  1  0.54894000  0.17502000  0.06009000  1.0
  H  H49  1  0.04894000  0.32498000  0.56009000  1.0
  H  H50  1  0.45105000  0.82497000  0.93991000  1.0
  H  H51  1  0.95106000  0.67502000  0.43991000  1.0
  H  H52  1  0.77483000  0.43532000  0.87424000  1.0
  H  H53  1  0.27483000  0.06468000  0.37424000  1.0
  H  H54  1  0.22517000  0.56468000  0.12576000  1.0
  H  H55  1  0.72517000  0.93532000  0.62576000  1.0
  H  H56  1  0.86751000  0.50382000  0.97309000  1.0
  H  H57  1  0.36751000  0.99618000  0.47309000  1.0
  H  H58  1  0.13249000  0.49618000  0.02691000  1.0
  H  H59  1  0.63249000  0.00382000  0.52691000  1.0
  H  H60  1  0.99577000  0.40137000  0.84055000  1.0
  H  H61  1  0.49577000  0.09863000  0.34055000  1.0
  H  H62  1  0.00423000  0.59863000  0.15945000  1.0
  H  H63  1  0.50424000  0.90137000  0.65945000  1.0
  H  H64  1  0.01632000  0.33854000  0.97057000  1.0
  H  H65  1  0.51632000  0.16146000  0.47057000  1.0
  H  H66  1  0.98368000  0.66146000  0.02943000  1.0
  H  H67  1  0.48368000  0.83854000  0.52943000  1.0
  H  H68  1  0.92331000  0.27012000  0.87161000  1.0
  H  H69  1  0.42331000  0.22989000  0.37161000  1.0
  H  H70  1  0.07669000  0.72988000  0.12839000  1.0
  H  H71  1  0.57669000  0.77011000  0.62839000  1.0
  C  C72  1  0.72658000  0.36477000  0.53371000  1.0
  C  C73  1  0.22658000  0.13523000  0.03371000  1.0
  C  C74  1  0.27342000  0.63522000  0.46629000  1.0
  C  C75  1  0.77342000  0.86478000  0.96629000  1.0
  C  C76  1  0.68197000  0.36574000  0.63802000  1.0
  C  C77  1  0.18197000  0.13426000  0.13802000  1.0
  C  C78  1  0.31803000  0.63426000  0.36198000  1.0
  C  C79  1  0.81803000  0.86574000  0.86198000  1.0
  C  C80  1  0.77475000  0.19537000  0.67555000  1.0
  C  C81  1  0.27474000  0.30462000  0.17555000  1.0
  C  C82  1  0.22526000  0.80462000  0.32445000  1.0
  C  C83  1  0.72526000  0.69538000  0.82445000  1.0
  C  C84  1  0.82083000  0.19317000  0.57260000  1.0
  C  C85  1  0.32082000  0.30683000  0.07261000  1.0
  C  C86  1  0.17918000  0.80683000  0.42739000  1.0
  C  C87  1  0.67917000  0.69317000  0.92740000  1.0
  C  C88  1  0.69871000  0.45785000  0.45513000  1.0
  C  C89  1  0.19871000  0.04215000  0.95512000  1.0
  C  C90  1  0.30129000  0.54215000  0.54487000  1.0
  C  C91  1  0.80129000  0.95785000  0.04487000  1.0
  C  C92  1  0.64327000  0.56564000  0.50148000  1.0
  C  C93  1  0.14326000  0.93436000  0.00148000  1.0
  C  C94  1  0.35674000  0.43436000  0.49852000  1.0
  C  C95  1  0.85674000  0.06564000  0.99852000  1.0
  C  C96  1  0.77350000  0.35679000  0.02809000  1.0
  C  C97  1  0.27351000  0.14321000  0.52809000  1.0
  C  C98  1  0.22649000  0.64321000  0.97191000  1.0
  C  C99  1  0.72649000  0.85679000  0.47191000  1.0
  C  C100  1  0.81953000  0.35844000  0.13340000  1.0
  C  C101  1  0.31953000  0.14156000  0.63340000  1.0
  C  C102  1  0.18047000  0.64156000  0.86660000  1.0
  C  C103  1  0.68047000  0.85844000  0.36660000  1.0
  C  C104  1  0.67578000  0.22922000  0.18468000  1.0
  C  C105  1  0.17578000  0.27078000  0.68468000  1.0
  C  C106  1  0.32421000  0.77078000  0.81532000  1.0
  C  C107  1  0.82421000  0.72922000  0.31532000  1.0
  C  C108  1  0.62673000  0.22924000  0.08130000  1.0
  C  C109  1  0.12673000  0.27076000  0.58130000  1.0
  C  C110  1  0.37327000  0.77076000  0.91870000  1.0
  C  C111  1  0.87327000  0.72924000  0.41870000  1.0
  C  C112  1  0.83857000  0.42027000  0.94212000  1.0
  C  C113  1  0.33857000  0.07973000  0.44212000  1.0
  C  C114  1  0.16143000  0.57973000  0.05788000  1.0
  C  C115  1  0.66144000  0.92027000  0.55788000  1.0
  C  C116  1  0.95051000  0.35335000  0.90418000  1.0
  C  C117  1  0.45051000  0.14665000  0.40418000  1.0
  C  C118  1  0.04949000  0.64665000  0.09582000  1.0
  C  C119  1  0.54949000  0.85335000  0.59582000  1.0
  I  I120  1  0.03551000  0.43932000  0.34322000  1.0
  I  I121  1  0.53550000  0.06068000  0.84322000  1.0
  I  I122  1  0.96450000  0.56068000  0.65678000  1.0
  I  I123  1  0.46450000  0.93932000  0.15678000  1.0
  I  I124  1  0.94564000  0.05740000  0.32760000  1.0
  I  I125  1  0.44565000  0.44260000  0.82760000  1.0
  I  I126  1  0.05435000  0.94260000  0.67239000  1.0
  I  I127  1  0.55435000  0.55739000  0.17239000  1.0
  N  N128  1  0.79647000  0.27619000  0.49998000  1.0
  N  N129  1  0.29647000  0.22381000  0.99998000  1.0
  N  N130  1  0.20353000  0.72381000  0.50002000  1.0
  N  N131  1  0.70353000  0.77619000  0.00002000  1.0
  N  N132  1  0.70259000  0.28140000  0.70937000  1.0
  N  N133  1  0.20258000  0.21859000  0.20937000  1.0
  N  N134  1  0.29742000  0.71860000  0.29063000  1.0
  N  N135  1  0.79741000  0.78140000  0.79063000  1.0
  N  N136  1  0.67616000  0.29071000  0.00114000  1.0
  N  N137  1  0.17616000  0.20929000  0.50114000  1.0
  N  N138  1  0.32384000  0.70929000  0.99886000  1.0
  N  N139  1  0.82384000  0.79071000  0.49886000  1.0
  N  N140  1  0.77453000  0.29321000  0.21203000  1.0
  N  N141  1  0.27453000  0.20679000  0.71203000  1.0
  N  N142  1  0.22547000  0.70679000  0.78797000  1.0
  N  N143  1  0.72547000  0.79321000  0.28797000  1.0
