# generated using pymatgen
data_Zn4H2C24S4Br4O13F2
_symmetry_space_group_name_H-M   'P 1'
_cell_length_a   19.67460000
_cell_length_b   19.79000000
_cell_length_c   33.37030000
_cell_angle_alpha   78.78260000
_cell_angle_beta   79.12040000
_cell_angle_gamma   63.90580000
_symmetry_Int_Tables_number   1
_chemical_formula_structural   Zn4H2C24S4Br4O13F2
_chemical_formula_sum   'Zn16 H8 C96 S16 Br16 O52 F8'
_cell_volume   11367.01173267
_cell_formula_units_Z   4
loop_
 _symmetry_equiv_pos_site_id
 _symmetry_equiv_pos_as_xyz
  1  'x, y, z'
loop_
 _atom_site_type_symbol
 _atom_site_label
 _atom_site_symmetry_multiplicity
 _atom_site_fract_x
 _atom_site_fract_y
 _atom_site_fract_z
 _atom_site_occupancy
  Zn  Zn0  1  0.05559000  0.40087000  0.47802000  1.0
  Zn  Zn1  1  0.98551000  0.48387000  0.56013000  1.0
  Zn  Zn2  1  0.05840000  0.56167000  0.48227000  1.0
  Zn  Zn3  1  0.90001000  0.55452000  0.47946000  1.0
  Zn  Zn4  1  0.69378000  0.34919000  0.27196000  1.0
  Zn  Zn5  1  0.69080000  0.18851000  0.26624000  1.0
  Zn  Zn6  1  0.76897000  0.26601000  0.18970000  1.0
  Zn  Zn7  1  0.84749000  0.19590000  0.27198000  1.0
  Zn  Zn8  1  0.26471000  0.76582000  0.69005000  1.0
  Zn  Zn9  1  0.34933000  0.69727000  0.77143000  1.0
  Zn  Zn10  1  0.19223000  0.84948000  0.77129000  1.0
  Zn  Zn11  1  0.19148000  0.68812000  0.76779000  1.0
  Zn  Zn12  1  0.55857000  0.06198000  0.98382000  1.0
  Zn  Zn13  1  0.40275000  0.05232000  0.97713000  1.0
  Zn  Zn14  1  0.55757000  0.90030000  0.97904000  1.0
  Zn  Zn15  1  0.48131000  0.98395000  0.06030000  1.0
  H  H16  1  0.74850000  0.45157000  0.34973000  1.0
  H  H17  1  0.00089000  0.29952000  0.40010000  1.0
  H  H18  1  0.20095000  0.70030000  0.59965000  1.0
  H  H19  1  0.04927000  0.54991000  0.65016000  1.0
  H  H20  1  0.64994000  0.15088000  0.04920000  1.0
  H  H21  1  0.60054000  0.09905000  0.20070000  1.0
  H  H22  1  0.30016000  0.99979000  0.89985000  1.0
  H  H23  1  0.45068000  0.74947000  0.84971000  1.0
  C  C24  1  0.06173000  0.31696000  0.56188000  1.0
  C  C25  1  0.07012000  0.57064000  0.56808000  1.0
  C  C26  1  0.18327000  0.43981000  0.43841000  1.0
  C  C27  1  0.93624000  0.68391000  0.43857000  1.0
  C  C28  1  0.92939000  0.43176000  0.43113000  1.0
  C  C29  1  0.81740000  0.56081000  0.56286000  1.0
  C  C30  1  0.56627000  0.30955000  0.31120000  1.0
  C  C31  1  0.68292000  0.18059000  0.17996000  1.0
  C  C32  1  0.68978000  0.43304000  0.18842000  1.0
  C  C33  1  0.93519000  0.18813000  0.18949000  1.0
  C  C34  1  0.81957000  0.31881000  0.31924000  1.0
  C  C35  1  0.81187000  0.06608000  0.31121000  1.0
  C  C36  1  0.43267000  0.68962000  0.68803000  1.0
  C  C37  1  0.31739000  0.82143000  0.81876000  1.0
  C  C38  1  0.18823000  0.93278000  0.68762000  1.0
  C  C39  1  0.06560000  0.80962000  0.81125000  1.0
  C  C40  1  0.18015000  0.67941000  0.68179000  1.0
  C  C41  1  0.31466000  0.56647000  0.81160000  1.0
  C  C42  1  0.43694000  0.18354000  0.93847000  1.0
  C  C43  1  0.43347000  0.92799000  0.93072000  1.0
  C  C44  1  0.68367000  0.94137000  0.93915000  1.0
  C  C45  1  0.56096000  0.81682000  0.06240000  1.0
  C  C46  1  0.56745000  0.06944000  0.06995000  1.0
  C  C47  1  0.31513000  0.06131000  0.05997000  1.0
  C  C48  1  0.89994000  0.40452000  0.40223000  1.0
  C  C49  1  0.84937000  0.34655000  0.34771000  1.0
  C  C50  1  0.82872000  0.44611000  0.38722000  1.0
  C  C51  1  0.92074000  0.30507000  0.36257000  1.0
  C  C52  1  0.80400000  0.41796000  0.36071000  1.0
  C  C53  1  0.94539000  0.33319000  0.38912000  1.0
  C  C54  1  0.09908000  0.59943000  0.59641000  1.0
  C  C55  1  0.15107000  0.65083000  0.65341000  1.0
  C  C56  1  0.14225000  0.64224000  0.58316000  1.0
  C  C57  1  0.10789000  0.60806000  0.66666667  1.0
  C  C58  1  0.16761000  0.66731000  0.61087000  1.0
  C  C59  1  0.08256000  0.58296000  0.63895000  1.0
  C  C60  1  0.30498000  0.45400000  0.40041000  1.0
  C  C61  1  0.44468000  0.29518000  0.34943000  1.0
  C  C62  1  0.25827000  0.41582000  0.41368000  1.0
  C  C63  1  0.49139000  0.33333333  0.33610000  1.0
  C  C64  1  0.37677000  0.33909000  0.37285000  1.0
  C  C65  1  0.37291000  0.41005000  0.37699000  1.0
  C  C66  1  0.72546000  0.57612000  0.63078000  1.0
  C  C67  1  0.52458000  0.67370000  0.62013000  1.0
  C  C68  1  0.74311000  0.58500000  0.58827000  1.0
  C  C69  1  0.50702000  0.66502000  0.66267000  1.0
  C  C70  1  0.60419000  0.64136000  0.60846000  1.0
  C  C71  1  0.64584000  0.60849000  0.64242000  1.0
  C  C72  1  0.07689000  0.22463000  0.62985000  1.0
  C  C73  1  0.17386000  0.02483000  0.61962000  1.0
  C  C74  1  0.08582000  0.24264000  0.58731000  1.0
  C  C75  1  0.16465000  0.00701000  0.66216000  1.0
  C  C76  1  0.14182000  0.10416000  0.60779000  1.0
  C  C77  1  0.10894000  0.14530000  0.64163000  1.0
  C  C78  1  0.84205000  0.80164000  0.39675000  1.0
  C  C79  1  0.90606000  0.94838000  0.35297000  1.0
  C  C80  1  0.91027000  0.75851000  0.41357000  1.0
  C  C81  1  0.83780000  0.99139000  0.33614000  1.0
  C  C82  1  0.90776000  0.87909000  0.37501000  1.0
  C  C83  1  0.84059000  0.87074000  0.37459000  1.0
  C  C84  1  0.65420000  0.15275000  0.15097000  1.0
  C  C85  1  0.59634000  0.09709000  0.09893000  1.0
  C  C86  1  0.66705000  0.16636000  0.10783000  1.0
  C  C87  1  0.58347000  0.08351000  0.14207000  1.0
  C  C88  1  0.63895000  0.13931000  0.08246000  1.0
  C  C89  1  0.61160000  0.11055000  0.16743000  1.0
  C  C90  1  0.67365000  0.52498000  0.12040000  1.0
  C  C91  1  0.57628000  0.72488000  0.13045000  1.0
  C  C92  1  0.66497000  0.50726000  0.16296000  1.0
  C  C93  1  0.58521000  0.74266000  0.08791000  1.0
  C  C94  1  0.60857000  0.64557000  0.14231000  1.0
  C  C95  1  0.64135000  0.60430000  0.10853000  1.0
  C  C96  1  0.08282000  0.12345000  0.17767000  1.0
  C  C97  1  0.16750000  0.12654000  0.07191000  1.0
  C  C98  1  0.01037000  0.16273000  0.16509000  1.0
  C  C99  1  0.23996000  0.08722000  0.08442000  1.0
  C  C100  1  0.11018000  0.13976000  0.10586000  1.0
  C  C101  1  0.14015000  0.11023000  0.14371000  1.0
  C  C102  1  0.34554000  0.85030000  0.84749000  1.0
  C  C103  1  0.40531000  0.89892000  0.90210000  1.0
  C  C104  1  0.30442000  0.92101000  0.86235000  1.0
  C  C105  1  0.44640000  0.82824000  0.88724000  1.0
  C  C106  1  0.33343000  0.94472000  0.88892000  1.0
  C  C107  1  0.41740000  0.80451000  0.86067000  1.0
  C  C108  1  0.40863000  0.44789000  0.85328000  1.0
  C  C109  1  0.34305000  0.30211000  0.89681000  1.0
  C  C110  1  0.34057000  0.49157000  0.83640000  1.0
  C  C111  1  0.41114000  0.25846000  0.91370000  1.0
  C  C112  1  0.34204000  0.37120000  0.87480000  1.0
  C  C113  1  0.40952000  0.37890000  0.87534000  1.0
  C  C114  1  0.94397000  0.79571000  0.84974000  1.0
  C  C115  1  0.80518000  0.95528000  0.90040000  1.0
  C  C116  1  0.99079000  0.83367000  0.83611000  1.0
  C  C117  1  0.75831000  0.91743000  0.91408000  1.0
  C  C118  1  0.87280000  0.91098000  0.87694000  1.0
  C  C119  1  0.87628000  0.84000000  0.87318000  1.0
  S  S120  1  0.29764000  0.32612000  0.39751000  1.0
  S  S121  1  0.45206000  0.42298000  0.35232000  1.0
  S  S122  1  0.66214000  0.63280000  0.56249000  1.0
  S  S123  1  0.58799000  0.61725000  0.68841000  1.0
  S  S124  1  0.13345000  0.16231000  0.56176000  1.0
  S  S125  1  0.11709000  0.08732000  0.68769000  1.0
  S  S126  1  0.97259000  0.80264000  0.40231000  1.0
  S  S127  1  0.77571000  0.94707000  0.34726000  1.0
  S  S128  1  0.61714000  0.58768000  0.18842000  1.0
  S  S129  1  0.63298000  0.66223000  0.06243000  1.0
  S  S130  1  0.01236000  0.18347000  0.11173000  1.0
  S  S131  1  0.23798000  0.06662000  0.13781000  1.0
  S  S132  1  0.27770000  0.44807000  0.84746000  1.0
  S  S133  1  0.47385000  0.30213000  0.90275000  1.0
  S  S134  1  0.95188000  0.92360000  0.85193000  1.0
  S  S135  1  0.79709000  0.82752000  0.89820000  1.0
  Br  Br136  1  0.28606000  0.55116000  0.41051000  1.0
  Br  Br137  1  0.46384000  0.19780000  0.33954000  1.0
  Br  Br138  1  0.79402000  0.52803000  0.67036000  1.0
  Br  Br139  1  0.45596000  0.72161000  0.58056000  1.0
  Br  Br140  1  0.02897000  0.29228000  0.66936000  1.0
  Br  Br141  1  0.22176000  0.95690000  0.58025000  1.0
  Br  Br142  1  0.75912000  0.77668000  0.40099000  1.0
  Br  Br143  1  0.98887000  0.97353000  0.34883000  1.0
  Br  Br144  1  0.72072000  0.45708000  0.08101000  1.0
  Br  Br145  1  0.52884000  0.79286000  0.16978000  1.0
  Br  Br146  1  0.10752000  0.08973000  0.23180000  1.0
  Br  Br147  1  0.14246000  0.16083000  0.01783000  1.0
  Br  Br148  1  0.49210000  0.47206000  0.84909000  1.0
  Br  Br149  1  0.25944000  0.27811000  0.90103000  1.0
  Br  Br150  1  0.96271000  0.69849000  0.83986000  1.0
  Br  Br151  1  0.78667000  0.05263000  0.90998000  1.0
  O  O152  1  0.00045000  0.49920000  0.49973000  1.0
  O  O153  1  0.07671000  0.31561000  0.52287000  1.0
  O  O154  1  0.03339000  0.53110000  0.58541000  1.0
  O  O155  1  0.15468000  0.50542000  0.44995000  1.0
  O  O156  1  0.02854000  0.37549000  0.58065000  1.0
  O  O157  1  0.15358000  0.39181000  0.44602000  1.0
  O  O158  1  0.08403000  0.58752000  0.52962000  1.0
  O  O159  1  0.00334000  0.65806000  0.44926000  1.0
  O  O160  1  0.88612000  0.49585000  0.44323000  1.0
  O  O161  1  0.89072000  0.65178000  0.44742000  1.0
  O  O162  1  0.99586000  0.38771000  0.44122000  1.0
  O  O163  1  0.87691000  0.52714000  0.58135000  1.0
  O  O164  1  0.81496000  0.57631000  0.52388000  1.0
  O  O165  1  0.74875000  0.25102000  0.25010000  1.0
  O  O166  1  0.59614000  0.35733000  0.30409000  1.0
  O  O167  1  0.66567000  0.16354000  0.21826000  1.0
  O  O168  1  0.72578000  0.37454000  0.16979000  1.0
  O  O169  1  0.59447000  0.24448000  0.29899000  1.0
  O  O170  1  0.67263000  0.43449000  0.22739000  1.0
  O  O171  1  0.72164000  0.21847000  0.16432000  1.0
  O  O172  1  0.87785000  0.22315000  0.16891000  1.0
  O  O173  1  0.86219000  0.25377000  0.30815000  1.0
  O  O174  1  0.93333000  0.17343000  0.22845000  1.0
  O  O175  1  0.75360000  0.36307000  0.30857000  1.0
  O  O176  1  0.74575000  0.09145000  0.29931000  1.0
  O  O177  1  0.85681000  0.09878000  0.30369000  1.0
  O  O178  1  0.24952000  0.75047000  0.75044000  1.0
  O  O179  1  0.37341000  0.72243000  0.66933000  1.0
  O  O180  1  0.36294000  0.75662000  0.80765000  1.0
  O  O181  1  0.17204000  0.93443000  0.72657000  1.0
  O  O182  1  0.43476000  0.67538000  0.72706000  1.0
  O  O183  1  0.22208000  0.87405000  0.66904000  1.0
  O  O184  1  0.25142000  0.86297000  0.80792000  1.0
  O  O185  1  0.09444000  0.85831000  0.80297000  1.0
  O  O186  1  0.16602000  0.66262000  0.72024000  1.0
  O  O187  1  0.09497000  0.74351000  0.80025000  1.0
  O  O188  1  0.21721000  0.71865000  0.66451000  1.0
  O  O189  1  0.35944000  0.59945000  0.80354000  1.0
  O  O190  1  0.24805000  0.59171000  0.80037000  1.0
  O  O191  1  0.50073000  0.99936000  0.99989000  1.0
  O  O192  1  0.50254000  0.15883000  0.95091000  1.0
  O  O193  1  0.38870000  0.99380000  0.94076000  1.0
  O  O194  1  0.65450000  0.89300000  0.94686000  1.0
  O  O195  1  0.39277000  0.15000000  0.94529000  1.0
  O  O196  1  0.65495000  0.00688000  0.95086000  1.0
  O  O197  1  0.49851000  0.88576000  0.94259000  1.0
  O  O198  1  0.57903000  0.81511000  0.02351000  1.0
  O  O199  1  0.52879000  0.03150000  0.08556000  1.0
  O  O200  1  0.52457000  0.87555000  0.08083000  1.0
  O  O201  1  0.58445000  0.08673000  0.03163000  1.0
  O  O202  1  0.31701000  0.07433000  0.02096000  1.0
  O  O203  1  0.37237000  0.02740000  0.08065000  1.0
  F  F204  1  0.78112000  0.51562000  0.39806000  1.0
  F  F205  1  0.96853000  0.23570000  0.35160000  1.0
  F  F206  1  0.16097000  0.66068000  0.54267000  1.0
  F  F207  1  0.08914000  0.58963000  0.70714000  1.0
  F  F208  1  0.70747000  0.20666000  0.08920000  1.0
  F  F209  1  0.54293000  0.04335000  0.16071000  1.0
  F  F210  1  0.23466000  0.96906000  0.85123000  1.0
  F  F211  1  0.51623000  0.78033000  0.89831000  1.0
