# generated using pymatgen
data_La2H14C9O16
_symmetry_space_group_name_H-M   'P 1'
_cell_length_a   7.03320000
_cell_length_b   10.10495302
_cell_length_c   14.28110000
_cell_angle_alpha   98.67063470
_cell_angle_beta   104.24940000
_cell_angle_gamma   110.35031544
_symmetry_Int_Tables_number   1
_chemical_formula_structural   La2H14C9O16
_chemical_formula_sum   'La4 H28 C18 O32'
_cell_volume   890.59003151
_cell_formula_units_Z   2
loop_
 _symmetry_equiv_pos_site_id
 _symmetry_equiv_pos_as_xyz
  1  'x, y, z'
loop_
 _atom_site_type_symbol
 _atom_site_label
 _atom_site_symmetry_multiplicity
 _atom_site_fract_x
 _atom_site_fract_y
 _atom_site_fract_z
 _atom_site_occupancy
  La  La0  1  0.09802000  0.13810000  0.66086000  1.0
  La  La1  1  0.20093000  0.63791000  0.16091000  1.0
  La  La2  1  0.90198000  0.86190000  0.33914000  1.0
  La  La3  1  0.79906000  0.36209000  0.83909000  1.0
  H  H4  1  0.58660000  0.64455000  0.90762000  1.0
  H  H5  1  0.46565000  0.14449000  0.40767000  1.0
  H  H6  1  0.41342000  0.35546000  0.09238000  1.0
  H  H7  1  0.53435000  0.85551000  0.59233000  1.0
  H  H8  1  0.35933000  0.67357000  0.84265000  1.0
  H  H9  1  0.65657000  0.17337000  0.34249000  1.0
  H  H10  1  0.64067000  0.32643000  0.15734000  1.0
  H  H11  1  0.34343000  0.82663000  0.65751000  1.0
  H  H12  1  0.74223000  0.84921000  0.77086000  1.0
  H  H13  1  0.37745000  0.34833000  0.27053000  1.0
  H  H14  1  0.25777000  0.15079000  0.22914000  1.0
  H  H15  1  0.62255000  0.65167000  0.72947000  1.0
  H  H16  1  0.13248000  0.01400000  0.86022000  1.0
  H  H17  1  0.24180000  0.51379000  0.36018000  1.0
  H  H18  1  0.86752000  0.98600000  0.13978000  1.0
  H  H19  1  0.75820000  0.48621000  0.63982000  1.0
  H  H20  1  0.31180000  0.17601000  0.89342000  1.0
  H  H21  1  0.25736000  0.67576000  0.39345000  1.0
  H  H22  1  0.68820000  0.82399000  0.10658000  1.0
  H  H23  1  0.74264000  0.32424000  0.60655000  1.0
  H  H24  1  0.43594000  0.35244000  0.60030000  1.0
  H  H25  1  0.01708000  0.85245000  0.10036000  1.0
  H  H26  1  0.56405000  0.64756000  0.39970000  1.0
  H  H27  1  0.98293000  0.14756000  0.89964000  1.0
  H  H28  1  0.22496000  0.34248000  0.51607000  1.0
  H  H29  1  0.13414000  0.84261000  0.01623000  1.0
  H  H30  1  0.77504000  0.65752000  0.48393000  1.0
  H  H31  1  0.86585000  0.15739000  0.98376000  1.0
  C  C32  1  0.31767000  0.44919000  0.81244000  1.0
  C  C33  1  0.44391000  0.94899000  0.31252000  1.0
  C  C34  1  0.68233000  0.55081000  0.18756000  1.0
  C  C35  1  0.55610000  0.05101000  0.68748000  1.0
  C  C36  1  0.41102000  0.60017000  0.88224000  1.0
  C  C37  1  0.57140000  0.10008000  0.38220000  1.0
  C  C38  1  0.58898000  0.39983000  0.11776000  1.0
  C  C39  1  0.42859000  0.89991000  0.61780000  1.0
  C  C40  1  0.33668000  0.60578000  0.97357000  1.0
  C  C41  1  0.74288000  0.10587000  0.47351000  1.0
  C  C42  1  0.66332000  0.39422000  0.02643000  1.0
  C  C43  1  0.25712000  0.89413000  0.52649000  1.0
  C  C44  1  0.85705000  0.75639000  0.66213000  1.0
  C  C45  1  0.06123000  0.25600000  0.16190000  1.0
  C  C46  1  0.14296000  0.24362000  0.33787000  1.0
  C  C47  1  0.93877000  0.74400000  0.83810000  1.0
  C  C48  1  0.77025000  0.75036000  0.75017000  1.0
  C  C49  1  0.22975000  0.24964000  0.24983000  1.0
  O  O50  1  0.11421000  0.38154000  0.77403000  1.0
  O  O51  1  0.54117000  0.88128000  0.27402000  1.0
  O  O52  1  0.88579000  0.61846000  0.22598000  1.0
  O  O53  1  0.45882000  0.11871000  0.72598000  1.0
  O  O54  1  0.44026000  0.38997000  0.79249000  1.0
  O  O55  1  0.24222000  0.88983000  0.29271000  1.0
  O  O56  1  0.55973000  0.61003000  0.20750000  1.0
  O  O57  1  0.75778000  0.11017000  0.70729000  1.0
  O  O58  1  0.18154000  0.49710000  0.97855000  1.0
  O  O59  1  0.79417000  0.99712000  0.47860000  1.0
  O  O60  1  0.81845000  0.50290000  0.02145000  1.0
  O  O61  1  0.20584000  0.00288000  0.52140000  1.0
  O  O62  1  0.43398000  0.72143000  0.04459000  1.0
  O  O63  1  0.83238000  0.22166000  0.54443000  1.0
  O  O64  1  0.56601000  0.27857000  0.95540000  1.0
  O  O65  1  0.16762000  0.77834000  0.45557000  1.0
  O  O66  1  0.95649000  0.88146000  0.65113000  1.0
  O  O67  1  0.07627000  0.38119000  0.15096000  1.0
  O  O68  1  0.04352000  0.11854000  0.34887000  1.0
  O  O69  1  0.92373000  0.61881000  0.84904000  1.0
  O  O70  1  0.82967000  0.63737000  0.60533000  1.0
  O  O71  1  0.91248000  0.13713000  0.10513000  1.0
  O  O72  1  0.17032000  0.36263000  0.39467000  1.0
  O  O73  1  0.08754000  0.86288000  0.89487000  1.0
  O  O74  1  0.16196000  0.11448000  0.84849000  1.0
  O  O75  1  0.30092000  0.61433000  0.34853000  1.0
  O  O76  1  0.83804000  0.88552000  0.15151000  1.0
  O  O77  1  0.69908000  0.38567000  0.65147000  1.0
  O  O78  1  0.27961000  0.32961000  0.58382000  1.0
  O  O79  1  0.13430000  0.82973000  0.08399000  1.0
  O  O80  1  0.72039000  0.67039000  0.41618000  1.0
  O  O81  1  0.86568000  0.17026000  0.91600000  1.0
