# generated using pymatgen
data_ZnH20C32N3O4
_symmetry_space_group_name_H-M   'P 1'
_cell_length_a   10.78240000
_cell_length_b   15.88290000
_cell_length_c   16.99420000
_cell_angle_alpha   88.09310000
_cell_angle_beta   89.88900000
_cell_angle_gamma   89.94760000
_symmetry_Int_Tables_number   1
_chemical_formula_structural   ZnH20C32N3O4
_chemical_formula_sum   'Zn2 H40 C64 N6 O8'
_cell_volume   2908.73677375
_cell_formula_units_Z   2
loop_
 _symmetry_equiv_pos_site_id
 _symmetry_equiv_pos_as_xyz
  1  'x, y, z'
loop_
 _atom_site_type_symbol
 _atom_site_label
 _atom_site_symmetry_multiplicity
 _atom_site_fract_x
 _atom_site_fract_y
 _atom_site_fract_z
 _atom_site_occupancy
  Zn  Zn0  1  0.49935000  0.41174000  0.49643000  1.0
  Zn  Zn1  1  0.50087000  0.58818000  0.50356000  1.0
  H  H2  1  0.90255000  0.77918000  0.40526000  1.0
  H  H3  1  0.09774000  0.22080000  0.59482000  1.0
  H  H4  1  0.62845000  0.10937000  0.57044000  1.0
  H  H5  1  0.37183000  0.89058000  0.42953000  1.0
  H  H6  1  0.66234000  0.86840000  0.60333000  1.0
  H  H7  1  0.33782000  0.13152000  0.39672000  1.0
  H  H8  1  0.65241000  0.70966000  0.58985000  1.0
  H  H9  1  0.34777000  0.29026000  0.41018000  1.0
  H  H10  1  0.79879000  0.33347000  0.46094000  1.0
  H  H11  1  0.20153000  0.66645000  0.53909000  1.0
  H  H12  1  0.19686000  0.35820000  0.60282000  1.0
  H  H13  1  0.80341000  0.64180000  0.39723000  1.0
  H  H14  1  0.53820000  0.39654000  0.26348000  1.0
  H  H15  1  0.46145000  0.60364000  0.73619000  1.0
  H  H16  1  0.57679000  0.35127000  0.89898000  1.0
  H  H17  1  0.41967000  0.64852000  0.10109000  1.0
  H  H18  1  0.61378000  0.35416000  0.75252000  1.0
  H  H19  1  0.38423000  0.64560000  0.24769000  1.0
  H  H20  1  0.62669000  0.26837000  0.57646000  1.0
  H  H21  1  0.37362000  0.73156000  0.42348000  1.0
  H  H22  1  0.83680000  0.21949000  0.38548000  1.0
  H  H23  1  0.75960000  0.07810000  0.35251000  1.0
  H  H24  1  0.77986000  0.95757000  0.44978000  1.0
  H  H25  1  0.87305000  0.98131000  0.58114000  1.0
  H  H26  1  0.94627000  0.12308000  0.61500000  1.0
  H  H27  1  0.05390000  0.87693000  0.38510000  1.0
  H  H28  1  0.12705000  0.01871000  0.41899000  1.0
  H  H29  1  0.22042000  0.04241000  0.55031000  1.0
  H  H30  1  0.24081000  0.92185000  0.64753000  1.0
  H  H31  1  0.16363000  0.78046000  0.61455000  1.0
  H  H32  1  0.48014000  0.28572000  0.16663000  1.0
  H  H33  1  0.60105000  0.16396000  0.11964000  1.0
  H  H34  1  0.79279000  0.18817000  0.03970000  1.0
  H  H35  1  0.86262000  0.33524000  0.00811000  1.0
  H  H36  1  0.74153000  0.45629000  0.05533000  1.0
  H  H37  1  0.25616000  0.54466000  0.94382000  1.0
  H  H38  1  0.13576000  0.66600000  0.99090000  1.0
  H  H39  1  0.20681000  0.81290000  0.95966000  1.0
  H  H40  1  0.39897000  0.83651000  0.87995000  1.0
  H  H41  1  0.51922000  0.71442000  0.83309000  1.0
  C  C42  1  0.55685000  0.48640000  0.64865000  1.0
  C  C43  1  0.44290000  0.51352000  0.35138000  1.0
  C  C44  1  0.54395000  0.48097000  0.73639000  1.0
  C  C45  1  0.45509000  0.51902000  0.26362000  1.0
  C  C46  1  0.48994000  0.54963000  0.77309000  1.0
  C  C47  1  0.50911000  0.45050000  0.22671000  1.0
  C  C48  1  0.46579000  0.54911000  0.85387000  1.0
  C  C49  1  0.53247000  0.45109000  0.14583000  1.0
  C  C50  1  0.50192000  0.47632000  0.89890000  1.0
  C  C51  1  0.49540000  0.52369000  0.10089000  1.0
  C  C52  1  0.55263000  0.40622000  0.86196000  1.0
  C  C53  1  0.44451000  0.59362000  0.13799000  1.0
  C  C54  1  0.57425000  0.40831000  0.78127000  1.0
  C  C55  1  0.42378000  0.59152000  0.21880000  1.0
  C  C56  1  0.43638000  0.76520000  0.46166000  1.0
  C  C57  1  0.56387000  0.23473000  0.53832000  1.0
  C  C58  1  0.43659000  0.85233000  0.46434000  1.0
  C  C59  1  0.56365000  0.14760000  0.53565000  1.0
  C  C60  1  0.51918000  0.89017000  0.51605000  1.0
  C  C61  1  0.48103000  0.10976000  0.48397000  1.0
  C  C62  1  0.59854000  0.83959000  0.56254000  1.0
  C  C63  1  0.40163000  0.16033000  0.43750000  1.0
  C  C64  1  0.73503000  0.49576000  0.46283000  1.0
  C  C65  1  0.26522000  0.50420000  0.53719000  1.0
  C  C66  1  0.59332000  0.75273000  0.55546000  1.0
  C  C67  1  0.40687000  0.24720000  0.44457000  1.0
  C  C68  1  0.88643000  0.33831000  0.49161000  1.0
  C  C69  1  0.11387000  0.66165000  0.50843000  1.0
  C  C70  1  0.94517000  0.26641000  0.52027000  1.0
  C  C71  1  0.05511000  0.73355000  0.47980000  1.0
  C  C72  1  0.05517000  0.27579000  0.56563000  1.0
  C  C73  1  0.94513000  0.72418000  0.43445000  1.0
  C  C74  1  0.11108000  0.35284000  0.57009000  1.0
  C  C75  1  0.88920000  0.64714000  0.42995000  1.0
  C  C76  1  0.06053000  0.42701000  0.53188000  1.0
  C  C77  1  0.93974000  0.57294000  0.46813000  1.0
  C  C78  1  0.93728000  0.42067000  0.49907000  1.0
  C  C79  1  0.06300000  0.57930000  0.50096000  1.0
  C  C80  1  0.12585000  0.50465000  0.52769000  1.0
  C  C81  1  0.87438000  0.49532000  0.47233000  1.0
  C  C82  1  0.89672000  0.18196000  0.50271000  1.0
  C  C83  1  0.84293000  0.16752000  0.42893000  1.0
  C  C84  1  0.80029000  0.08774000  0.41026000  1.0
  C  C85  1  0.81092000  0.02034000  0.46480000  1.0
  C  C86  1  0.86331000  0.03370000  0.53844000  1.0
  C  C87  1  0.90569000  0.11354000  0.55721000  1.0
  C  C88  1  0.10359000  0.81800000  0.49737000  1.0
  C  C89  1  0.09453000  0.88646000  0.44290000  1.0
  C  C90  1  0.13690000  0.96630000  0.46166000  1.0
  C  C91  1  0.18937000  0.97965000  0.53528000  1.0
  C  C92  1  0.20009000  0.91224000  0.58979000  1.0
  C  C93  1  0.15745000  0.83244000  0.57112000  1.0
  C  C94  1  0.60195000  0.37921000  0.11373000  1.0
  C  C95  1  0.56448000  0.29628000  0.13208000  1.0
  C  C96  1  0.63242000  0.22797000  0.10542000  1.0
  C  C97  1  0.73960000  0.24149000  0.06050000  1.0
  C  C98  1  0.77863000  0.32393000  0.04275000  1.0
  C  C99  1  0.71063000  0.39210000  0.06918000  1.0
  C  C100  1  0.39664000  0.62125000  0.88579000  1.0
  C  C101  1  0.28763000  0.60876000  0.93009000  1.0
  C  C102  1  0.21999000  0.67710000  0.95645000  1.0
  C  C103  1  0.25968000  0.75944000  0.93886000  1.0
  C  C104  1  0.36712000  0.77260000  0.89410000  1.0
  C  C105  1  0.43472000  0.70407000  0.86753000  1.0
  N  N106  1  0.48890000  0.46681000  0.98142000  1.0
  N  N107  1  0.50808000  0.53323000  0.01839000  1.0
  N  N108  1  0.51289000  0.71662000  0.50646000  1.0
  N  N109  1  0.48734000  0.28332000  0.49354000  1.0
  N  N110  1  0.52381000  0.97798000  0.52770000  1.0
  N  N111  1  0.47644000  0.02195000  0.47231000  1.0
  O  O112  1  0.55990000  0.41759000  0.61179000  1.0
  O  O113  1  0.43968000  0.58228000  0.38832000  1.0
  O  O114  1  0.55894000  0.56019000  0.61723000  1.0
  O  O115  1  0.44147000  0.43971000  0.38275000  1.0
  O  O116  1  0.67689000  0.42699000  0.45323000  1.0
  O  O117  1  0.32340000  0.57292000  0.54702000  1.0
  O  O118  1  0.68067000  0.56619000  0.47155000  1.0
  O  O119  1  0.31950000  0.43379000  0.52823000  1.0
