# generated using pymatgen
data_Cd3H14C24(NO2)6
_symmetry_space_group_name_H-M   'P 1'
_cell_length_a   8.68616000
_cell_length_b   9.25037000
_cell_length_c   10.00620000
_cell_angle_alpha   101.30900000
_cell_angle_beta   105.11300000
_cell_angle_gamma   114.27100000
_symmetry_Int_Tables_number   1
_chemical_formula_structural   Cd3H14C24(NO2)6
_chemical_formula_sum   'Cd3 H14 C24 N6 O12'
_cell_volume   664.24754495
_cell_formula_units_Z   1
loop_
 _symmetry_equiv_pos_site_id
 _symmetry_equiv_pos_as_xyz
  1  'x, y, z'
loop_
 _atom_site_type_symbol
 _atom_site_label
 _atom_site_symmetry_multiplicity
 _atom_site_fract_x
 _atom_site_fract_y
 _atom_site_fract_z
 _atom_site_occupancy
  Cd  Cd0  1  0.22765000  0.01407000  0.13719000  1.0
  Cd  Cd1  1  0.77235000  0.98593000  0.86281000  1.0
  Cd  Cd2  1  0.50000000  0.00000000  0.50000000  1.0
  H  H3  1  0.36815000  0.76973000  0.92101000  1.0
  H  H4  1  0.63185000  0.23027000  0.07899000  1.0
  H  H5  1  0.60495000  0.70139000  0.31381000  1.0
  H  H6  1  0.39505000  0.29861000  0.68619000  1.0
  H  H7  1  0.70416000  0.64118000  0.06867000  1.0
  H  H8  1  0.29584000  0.35882000  0.93133000  1.0
  H  H9  1  0.53853000  0.61034000  0.90157000  1.0
  H  H10  1  0.46147000  0.38966000  0.09843000  1.0
  H  H11  1  0.22941000  0.45601000  0.33706000  1.0
  H  H12  1  0.77059000  0.54399000  0.66294000  1.0
  H  H13  1  0.82834000  0.02665000  0.38737000  1.0
  H  H14  1  0.17166000  0.97335000  0.61263000  1.0
  H  H15  1  0.20060000  0.47819000  0.76333000  1.0
  H  H16  1  0.79940000  0.52181000  0.23667000  1.0
  C  C17  1  0.40789000  0.77431000  0.03458000  1.0
  C  C18  1  0.59211000  0.22569000  0.96542000  1.0
  C  C19  1  0.53283000  0.74148000  0.23659000  1.0
  C  C20  1  0.46717000  0.25852000  0.76342000  1.0
  C  C21  1  0.55740000  0.59255000  0.00881000  1.0
  C  C22  1  0.44260000  0.40745000  0.99119000  1.0
  C  C23  1  0.23155000  0.48760000  0.55682000  1.0
  C  C24  1  0.76845000  0.51240000  0.44318000  1.0
  C  C25  1  0.16750000  0.39609000  0.40671000  1.0
  C  C26  1  0.83251000  0.60391000  0.59329000  1.0
  C  C27  1  0.02320000  0.23023000  0.34519000  1.0
  C  C28  1  0.97681000  0.76977000  0.65481000  1.0
  C  C29  1  0.94222000  0.15487000  0.43477000  1.0
  C  C30  1  0.05778000  0.84513000  0.56523000  1.0
  C  C31  1  0.00902000  0.24260000  0.58605000  1.0
  C  C32  1  0.99098000  0.75740000  0.41395000  1.0
  C  C33  1  0.15353000  0.40941000  0.64639000  1.0
  C  C34  1  0.84647000  0.59059000  0.35361000  1.0
  C  C35  1  0.37892000  0.66996000  0.61457000  1.0
  C  C36  1  0.62108000  0.33005000  0.38542000  1.0
  C  C37  1  0.95774000  0.13876000  0.18320000  1.0
  C  C38  1  0.04226000  0.86124000  0.81680000  1.0
  C  C39  1  0.92861000  0.15871000  0.68349000  1.0
  C  C40  1  0.07139000  0.84129000  0.31651000  1.0
  N  N41  1  0.38582000  0.86169000  0.14199000  1.0
  N  N42  1  0.61418000  0.13831000  0.85801000  1.0
  N  N43  1  0.46496000  0.84153000  0.26933000  1.0
  N  N44  1  0.53504000  0.15847000  0.73067000  1.0
  N  N45  1  0.49977000  0.69667000  0.08976000  1.0
  N  N46  1  0.50023000  0.30333000  0.91024000  1.0
  O  O47  1  0.48820000  0.73393000  0.74946000  1.0
  O  O48  1  0.51180000  0.26607000  0.25054000  1.0
  O  O49  1  0.37933000  0.74285000  0.52001000  1.0
  O  O50  1  0.62067000  0.25715000  0.47999000  1.0
  O  O51  1  0.07695000  0.16703000  0.12432000  1.0
  O  O52  1  0.92305000  0.83297000  0.87568000  1.0
  O  O53  1  0.78742000  0.04237000  0.10969000  1.0
  O  O54  1  0.21258000  0.95763000  0.89031000  1.0
  O  O55  1  0.77833000  0.01550000  0.62232000  1.0
  O  O56  1  0.22167000  0.98450000  0.37768000  1.0
  O  O57  1  0.00948000  0.22530000  0.82187000  1.0
  O  O58  1  0.99052000  0.77470000  0.17813000  1.0
