# generated using pymatgen
data_CuH16C20(N2O)4
_symmetry_space_group_name_H-M   'P 1'
_cell_length_a   3.86762000
_cell_length_b   15.98400000
_cell_length_c   15.98667177
_cell_angle_alpha   89.19447993
_cell_angle_beta   83.04522478
_cell_angle_gamma   83.04810000
_symmetry_Int_Tables_number   1
_chemical_formula_structural   CuH16C20(N2O)4
_chemical_formula_sum   'Cu2 H32 C40 N16 O8'
_cell_volume   973.81224320
_cell_formula_units_Z   2
loop_
 _symmetry_equiv_pos_site_id
 _symmetry_equiv_pos_as_xyz
  1  'x, y, z'
loop_
 _atom_site_type_symbol
 _atom_site_label
 _atom_site_symmetry_multiplicity
 _atom_site_fract_x
 _atom_site_fract_y
 _atom_site_fract_z
 _atom_site_occupancy
  Cu  Cu0  1  0.87253000  0.24998000  0.24997000  1.0
  Cu  Cu1  1  0.12749000  0.75002000  0.75002000  1.0
  H  H2  1  0.13506000  0.45920000  0.14529000  1.0
  H  H3  1  0.27965000  0.85460000  0.95918000  1.0
  H  H4  1  0.23954000  0.04088000  0.35471000  1.0
  H  H5  1  0.59289000  0.64541000  0.54089000  1.0
  H  H6  1  0.86494000  0.54080000  0.85471000  1.0
  H  H7  1  0.72034000  0.14540000  0.04082000  1.0
  H  H8  1  0.76046000  0.95912000  0.64528000  1.0
  H  H9  1  0.40710000  0.35459000  0.45912000  1.0
  H  H10  1  0.37854000  0.36641000  0.74376000  1.0
  H  H11  1  0.12208000  0.25609000  0.86630000  1.0
  H  H12  1  0.98796000  0.13366000  0.75619000  1.0
  H  H13  1  0.74443000  0.24393000  0.63361000  1.0
  H  H14  1  0.62145000  0.63359000  0.25625000  1.0
  H  H15  1  0.87790000  0.74391000  0.13371000  1.0
  H  H16  1  0.01206000  0.86634000  0.24380000  1.0
  H  H17  1  0.25556000  0.75606000  0.36638000  1.0
  H  H18  1  0.30811000  0.47749000  0.76128000  1.0
  H  H19  1  0.06984000  0.23850000  0.97732000  1.0
  H  H20  1  0.04675000  0.02257000  0.73872000  1.0
  H  H21  1  0.78579000  0.26147000  0.52258000  1.0
  H  H22  1  0.69188000  0.52251000  0.23873000  1.0
  H  H23  1  0.93015000  0.76150000  0.02269000  1.0
  H  H24  1  0.95328000  0.97743000  0.26127000  1.0
  H  H25  1  0.21420000  0.73852000  0.47742000  1.0
  H  H26  1  0.94702000  0.41615000  0.78171000  1.0
  H  H27  1  0.72821000  0.21842000  0.91612000  1.0
  H  H28  1  0.64443000  0.08378000  0.71832000  1.0
  H  H29  1  0.36284000  0.28166000  0.58377000  1.0
  H  H30  1  0.05298000  0.58385000  0.21829000  1.0
  H  H31  1  0.27177000  0.78159000  0.08389000  1.0
  H  H32  1  0.35559000  0.91622000  0.28167000  1.0
  H  H33  1  0.63715000  0.71833000  0.41622000  1.0
  C  C34  1  0.23760000  0.42714000  0.01366000  1.0
  C  C35  1  0.25099000  0.98619000  0.92706000  1.0
  C  C36  1  0.17767000  0.07297000  0.48635000  1.0
  C  C37  1  0.66392000  0.51383000  0.57299000  1.0
  C  C38  1  0.76241000  0.57286000  0.98634000  1.0
  C  C39  1  0.74900000  0.01381000  0.07293000  1.0
  C  C40  1  0.82233000  0.92703000  0.51364000  1.0
  C  C41  1  0.33607000  0.48617000  0.42701000  1.0
  C  C42  1  0.07471000  0.47848000  0.08260000  1.0
  C  C43  1  0.15684000  0.91735000  0.97847000  1.0
  C  C44  1  0.13596000  0.02156000  0.41741000  1.0
  C  C45  1  0.55238000  0.58266000  0.52158000  1.0
  C  C46  1  0.92530000  0.52152000  0.91740000  1.0
  C  C47  1  0.84316000  0.08265000  0.02153000  1.0
  C  C48  1  0.86404000  0.97844000  0.58259000  1.0
  C  C49  1  0.44760000  0.41734000  0.47843000  1.0
  C  C50  1  0.15485000  0.45071000  0.92941000  1.0
  C  C51  1  0.08402000  0.07048000  0.95059000  1.0
  C  C52  1  0.03423000  0.04934000  0.57058000  1.0
  C  C53  1  0.60517000  0.42953000  0.54937000  1.0
  C  C54  1  0.84516000  0.54929000  0.07059000  1.0
  C  C55  1  0.91597000  0.92951000  0.04940000  1.0
  C  C56  1  0.96577000  0.95066000  0.42942000  1.0
  C  C57  1  0.39482000  0.57047000  0.45063000  1.0
  C  C58  1  0.56036000  0.32877000  0.09132000  1.0
  C  C59  1  0.65216000  0.90845000  0.82862000  1.0
  C  C60  1  0.48011000  0.17126000  0.40871000  1.0
  C  C61  1  0.88924000  0.59158000  0.67133000  1.0
  C  C62  1  0.43964000  0.67122000  0.90868000  1.0
  C  C63  1  0.34785000  0.09155000  0.17138000  1.0
  C  C64  1  0.51991000  0.82875000  0.59129000  1.0
  C  C65  1  0.11076000  0.40842000  0.32867000  1.0
  C  C66  1  0.22942000  0.41647000  0.78368000  1.0
  C  C67  1  0.01277000  0.21618000  0.91632000  1.0
  C  C68  1  0.92910000  0.08354000  0.71631000  1.0
  C  C69  1  0.64541000  0.28383000  0.58358000  1.0
  C  C70  1  0.77057000  0.58353000  0.21633000  1.0
  C  C71  1  0.98722000  0.78382000  0.08368000  1.0
  C  C72  1  0.07093000  0.91646000  0.28368000  1.0
  C  C73  1  0.35458000  0.71616000  0.41642000  1.0
  N  N74  1  0.67069000  0.29318000  0.14962000  1.0
  N  N75  1  0.82141000  0.85027000  0.79284000  1.0
  N  N76  1  0.61401000  0.20668000  0.35039000  1.0
  N  N77  1  0.96529000  0.64977000  0.70693000  1.0
  N  N78  1  0.32931000  0.70681000  0.85038000  1.0
  N  N79  1  0.17861000  0.14973000  0.20716000  1.0
  N  N80  1  0.38599000  0.79333000  0.64961000  1.0
  N  N81  1  0.03473000  0.35023000  0.29306000  1.0
  N  N82  1  0.46279000  0.35743000  0.02077000  1.0
  N  N83  1  0.48375000  0.97894000  0.85742000  1.0
  N  N84  1  0.33962000  0.14277000  0.47924000  1.0
  N  N85  1  0.81944000  0.52109000  0.64268000  1.0
  N  N86  1  0.53721000  0.64257000  0.97923000  1.0
  N  N87  1  0.51624000  0.02106000  0.14258000  1.0
  N  N88  1  0.66039000  0.85723000  0.52076000  1.0
  N  N89  1  0.18054000  0.47891000  0.35733000  1.0
  O  O90  1  0.31863000  0.39871000  0.86742000  1.0
  O  O91  1  0.18499000  0.13238000  0.89840000  1.0
  O  O92  1  0.08412000  0.10133000  0.63255000  1.0
  O  O93  1  0.71615000  0.36761000  0.60149000  1.0
  O  O94  1  0.68137000  0.60129000  0.13259000  1.0
  O  O95  1  0.81500000  0.86763000  0.10159000  1.0
  O  O96  1  0.91589000  0.89867000  0.36744000  1.0
  O  O97  1  0.28382000  0.63238000  0.39852000  1.0
