# generated using pymatgen
data_H14PbC18(BrN2)2
_symmetry_space_group_name_H-M   'P 1'
_cell_length_a   4.22755000
_cell_length_b   13.91190000
_cell_length_c   16.22690000
_cell_angle_alpha   104.42800000
_cell_angle_beta   89.99980000
_cell_angle_gamma   89.99970000
_symmetry_Int_Tables_number   1
_chemical_formula_structural   H14PbC18(BrN2)2
_chemical_formula_sum   'H28 Pb2 C36 Br4 N8'
_cell_volume   924.25780359
_cell_formula_units_Z   2
loop_
 _symmetry_equiv_pos_site_id
 _symmetry_equiv_pos_as_xyz
  1  'x, y, z'
loop_
 _atom_site_type_symbol
 _atom_site_label
 _atom_site_symmetry_multiplicity
 _atom_site_fract_x
 _atom_site_fract_y
 _atom_site_fract_z
 _atom_site_occupancy
  H  H0  1  0.74450000  0.52822000  0.80140000  1.0
  H  H1  1  0.74452000  0.97178000  0.69860000  1.0
  H  H2  1  0.25549000  0.47178000  0.19861000  1.0
  H  H3  1  0.25547000  0.02822000  0.30140000  1.0
  H  H4  1  0.84421000  0.34753000  0.73468000  1.0
  H  H5  1  0.84423000  0.15247000  0.76533000  1.0
  H  H6  1  0.15578000  0.65247000  0.26533000  1.0
  H  H7  1  0.15578000  0.84753000  0.23468000  1.0
  H  H8  1  0.30731000  0.38177000  0.51719000  1.0
  H  H9  1  0.30731000  0.11823000  0.98281000  1.0
  H  H10  1  0.69268000  0.61823000  0.48281000  1.0
  H  H11  1  0.69268000  0.88177000  0.01719000  1.0
  H  H12  1  0.22515000  0.56041000  0.59329000  1.0
  H  H13  1  0.22515000  0.93959000  0.90671000  1.0
  H  H14  1  0.77487000  0.43959000  0.40671000  1.0
  H  H15  1  0.77487000  0.06041000  0.09330000  1.0
  H  H16  1  0.50236000  0.22350000  0.51378000  1.0
  H  H17  1  0.50236000  0.27650000  0.98621000  1.0
  H  H18  1  0.49762000  0.77650000  0.48622000  1.0
  H  H19  1  0.49761000  0.72350000  0.01378000  1.0
  H  H20  1  0.21838000  0.07127000  0.64408000  1.0
  H  H21  1  0.21838000  0.42873000  0.85592000  1.0
  H  H22  1  0.78161000  0.92873000  0.35592000  1.0
  H  H23  1  0.78160000  0.57128000  0.14408000  1.0
  H  H24  1  0.63877000  0.09973000  0.43278000  1.0
  H  H25  1  0.63875000  0.40028000  0.06722000  1.0
  H  H26  1  0.36121000  0.90028000  0.56722000  1.0
  H  H27  1  0.36122000  0.59972000  0.93278000  1.0
  Pb  Pb28  1  0.42716000  0.75001000  0.74998000  1.0
  Pb  Pb29  1  0.57301000  0.25000000  0.25001000  1.0
  C  C30  1  0.65005000  0.49237000  0.73858000  1.0
  C  C31  1  0.65005000  0.00763000  0.76142000  1.0
  C  C32  1  0.34994000  0.50763000  0.26142000  1.0
  C  C33  1  0.34994000  0.99237000  0.23858000  1.0
  C  C34  1  0.70774000  0.39257000  0.70127000  1.0
  C  C35  1  0.70774000  0.10743000  0.79872000  1.0
  C  C36  1  0.29226000  0.60743000  0.29873000  1.0
  C  C37  1  0.29227000  0.89257000  0.20128000  1.0
  C  C38  1  0.58749000  0.35068000  0.61939000  1.0
  C  C39  1  0.58746000  0.14933000  0.88061000  1.0
  C  C40  1  0.41252000  0.64933000  0.38061000  1.0
  C  C41  1  0.41252000  0.85067000  0.11939000  1.0
  C  C42  1  0.40812000  0.41187000  0.58023000  1.0
  C  C43  1  0.40812000  0.08813000  0.91977000  1.0
  C  C44  1  0.59187000  0.58813000  0.41977000  1.0
  C  C45  1  0.59190000  0.91187000  0.08023000  1.0
  C  C46  1  0.36251000  0.51079000  0.62222000  1.0
  C  C47  1  0.36249000  0.98922000  0.87778000  1.0
  C  C48  1  0.63750000  0.48922000  0.37778000  1.0
  C  C49  1  0.63751000  0.01078000  0.12222000  1.0
  C  C50  1  0.64482000  0.24821000  0.57198000  1.0
  C  C51  1  0.64480000  0.25180000  0.92802000  1.0
  C  C52  1  0.35517000  0.75179000  0.42803000  1.0
  C  C53  1  0.35517000  0.74821000  0.07198000  1.0
  C  C54  1  0.91627000  0.09742000  0.54549000  1.0
  C  C55  1  0.91627000  0.40258000  0.95451000  1.0
  C  C56  1  0.08372000  0.90258000  0.45451000  1.0
  C  C57  1  0.08373000  0.59742000  0.04549000  1.0
  C  C58  1  0.12195000  0.03874000  0.58093000  1.0
  C  C59  1  0.12197000  0.46126000  0.91907000  1.0
  C  C60  1  0.87803000  0.96126000  0.41907000  1.0
  C  C61  1  0.87801000  0.53874000  0.08092000  1.0
  C  C62  1  0.79654000  0.05682000  0.46289000  1.0
  C  C63  1  0.79654000  0.44318000  0.03711000  1.0
  C  C64  1  0.20345000  0.94318000  0.53711000  1.0
  C  C65  1  0.20344000  0.55682000  0.96289000  1.0
  Br  Br66  1  0.91557000  0.75158000  0.61826000  1.0
  Br  Br67  1  0.91560000  0.74842000  0.88173000  1.0
  Br  Br68  1  0.08444000  0.24841000  0.38172000  1.0
  Br  Br69  1  0.08446000  0.25158000  0.11828000  1.0
  N  N70  1  0.48232000  0.55113000  0.69992000  1.0
  N  N71  1  0.48230000  0.94886000  0.80007000  1.0
  N  N72  1  0.51769000  0.44886000  0.30007000  1.0
  N  N73  1  0.51770000  0.05113000  0.19993000  1.0
  N  N74  1  0.85270000  0.19290000  0.59591000  1.0
  N  N75  1  0.85270000  0.30709000  0.90410000  1.0
  N  N76  1  0.14729000  0.80710000  0.40410000  1.0
  N  N77  1  0.14728000  0.69290000  0.09590000  1.0
