# generated using pymatgen
data_H12PbC20(NO2)2
_symmetry_space_group_name_H-M   'P 1'
_cell_length_a   7.49102000
_cell_length_b   9.84537000
_cell_length_c   13.12710000
_cell_angle_alpha   69.49630000
_cell_angle_beta   80.89910000
_cell_angle_gamma   72.01330000
_symmetry_Int_Tables_number   1
_chemical_formula_structural   H12PbC20(NO2)2
_chemical_formula_sum   'H24 Pb2 C40 N4 O8'
_cell_volume   861.13764802
_cell_formula_units_Z   2
loop_
 _symmetry_equiv_pos_site_id
 _symmetry_equiv_pos_as_xyz
  1  'x, y, z'
loop_
 _atom_site_type_symbol
 _atom_site_label
 _atom_site_symmetry_multiplicity
 _atom_site_fract_x
 _atom_site_fract_y
 _atom_site_fract_z
 _atom_site_occupancy
  H  H0  1  0.88288000  0.13142000  0.82575000  1.0
  H  H1  1  0.11710000  0.86861000  0.17428000  1.0
  H  H2  1  0.01910000  0.43349000  0.95171000  1.0
  H  H3  1  0.98083000  0.56661000  0.04827000  1.0
  H  H4  1  0.34847000  0.26179000  0.98174000  1.0
  H  H5  1  0.65149000  0.73835000  0.01822000  1.0
  H  H6  1  0.43403000  0.02312000  0.93595000  1.0
  H  H7  1  0.56597000  0.97702000  0.06403000  1.0
  H  H8  1  0.68377000  0.77370000  0.82368000  1.0
  H  H9  1  0.31629000  0.22638000  0.17626000  1.0
  H  H10  1  0.91170000  0.90096000  0.69601000  1.0
  H  H11  1  0.08834000  0.09910000  0.30389000  1.0
  H  H12  1  0.90970000  0.93940000  0.49427000  1.0
  H  H13  1  0.09038000  0.06048000  0.50566000  1.0
  H  H14  1  0.55859000  0.80791000  0.28750000  1.0
  H  H15  1  0.44138000  0.19194000  0.71252000  1.0
  H  H16  1  0.30277000  0.67983000  0.33343000  1.0
  H  H17  1  0.69717000  0.32007000  0.66666667  1.0
  H  H18  1  0.08433000  0.56024000  0.47531000  1.0
  H  H19  1  0.91564000  0.43967000  0.52477000  1.0
  H  H20  1  0.10467000  0.53343000  0.67128000  1.0
  H  H21  1  0.89529000  0.46658000  0.32878000  1.0
  H  H22  1  0.78021000  0.90511000  0.34710000  1.0
  H  H23  1  0.21986000  0.09469000  0.65288000  1.0
  Pb  Pb24  1  0.35394000  0.60574000  0.84803000  1.0
  Pb  Pb25  1  0.64605000  0.39433000  0.15199000  1.0
  C  C26  1  0.98428000  0.16083000  0.85931000  1.0
  C  C27  1  0.01571000  0.83923000  0.14070000  1.0
  C  C28  1  0.93204000  0.29379000  0.88644000  1.0
  C  C29  1  0.06792000  0.70627000  0.11356000  1.0
  C  C30  1  0.06293000  0.32942000  0.93117000  1.0
  C  C31  1  0.93703000  0.67067000  0.06881000  1.0
  C  C32  1  0.24495000  0.23421000  0.94816000  1.0
  C  C33  1  0.75501000  0.76590000  0.05182000  1.0
  C  C34  1  0.29415000  0.10071000  0.92284000  1.0
  C  C35  1  0.70585000  0.89940000  0.07714000  1.0
  C  C36  1  0.16424000  0.06264000  0.87945000  1.0
  C  C37  1  0.83576000  0.93744000  0.12055000  1.0
  C  C38  1  0.22025000  0.91480000  0.85786000  1.0
  C  C39  1  0.77977000  0.08527000  0.14214000  1.0
  C  C40  1  0.73637000  0.39578000  0.86986000  1.0
  C  C41  1  0.26358000  0.60426000  0.13017000  1.0
  C  C42  1  0.68789000  0.79240000  0.73663000  1.0
  C  C43  1  0.31216000  0.20762000  0.26332000  1.0
  C  C44  1  0.81470000  0.86495000  0.66392000  1.0
  C  C45  1  0.18534000  0.13506000  0.33601000  1.0
  C  C46  1  0.81354000  0.88518000  0.55440000  1.0
  C  C47  1  0.18653000  0.11475000  0.44554000  1.0
  C  C48  1  0.68734000  0.83348000  0.51799000  1.0
  C  C49  1  0.31272000  0.16641000  0.48198000  1.0
  C  C50  1  0.56344000  0.76206000  0.59746000  1.0
  C  C51  1  0.43659000  0.23788000  0.40254000  1.0
  C  C52  1  0.43236000  0.70816000  0.56253000  1.0
  C  C53  1  0.56765000  0.29179000  0.43748000  1.0
  C  C54  1  0.43242000  0.72639000  0.45002000  1.0
  C  C55  1  0.56757000  0.27353000  0.55000000  1.0
  C  C56  1  0.56087000  0.79716000  0.37289000  1.0
  C  C57  1  0.43913000  0.20272000  0.62711000  1.0
  C  C58  1  0.30372000  0.67137000  0.41873000  1.0
  C  C59  1  0.69624000  0.32855000  0.58131000  1.0
  C  C60  1  0.18491000  0.60299000  0.49757000  1.0
  C  C61  1  0.81505000  0.39694000  0.50250000  1.0
  C  C62  1  0.19553000  0.58864000  0.60698000  1.0
  C  C63  1  0.80444000  0.41133000  0.39307000  1.0
  C  C64  1  0.68346000  0.84941000  0.40563000  1.0
  C  C65  1  0.31658000  0.15045000  0.59436000  1.0
  N  N66  1  0.31474000  0.64002000  0.63841000  1.0
  N  N67  1  0.68526000  0.35996000  0.36162000  1.0
  N  N68  1  0.56658000  0.74286000  0.70475000  1.0
  N  N69  1  0.43347000  0.25714000  0.29524000  1.0
  O  O70  1  0.12721000  0.89404000  0.79433000  1.0
  O  O71  1  0.87282000  0.10601000  0.20568000  1.0
  O  O72  1  0.36360000  0.81471000  0.90605000  1.0
  O  O73  1  0.63643000  0.18537000  0.09395000  1.0
  O  O74  1  0.63406000  0.38207000  0.80794000  1.0
  O  O75  1  0.36587000  0.61793000  0.19211000  1.0
  O  O76  1  0.67988000  0.49573000  0.91908000  1.0
  O  O77  1  0.32010000  0.50434000  0.08092000  1.0
