# generated using pymatgen
data_MnH12C16(N4O)2
_symmetry_space_group_name_H-M   'P 1'
_cell_length_a   7.10970000
_cell_length_b   10.23240000
_cell_length_c   12.25440000
_cell_angle_alpha   90.00000000
_cell_angle_beta   90.00000000
_cell_angle_gamma   103.82200000
_symmetry_Int_Tables_number   1
_chemical_formula_structural   MnH12C16(N4O)2
_chemical_formula_sum   'Mn2 H24 C32 N16 O4'
_cell_volume   865.68347617
_cell_formula_units_Z   2
loop_
 _symmetry_equiv_pos_site_id
 _symmetry_equiv_pos_as_xyz
  1  'x, y, z'
loop_
 _atom_site_type_symbol
 _atom_site_label
 _atom_site_symmetry_multiplicity
 _atom_site_fract_x
 _atom_site_fract_y
 _atom_site_fract_z
 _atom_site_occupancy
  Mn  Mn0  1  0.00000000  0.00000000  0.00000000  1.0
  Mn  Mn1  1  0.50000000  0.50000000  0.50000000  1.0
  H  H2  1  0.96844000  0.21975000  0.20197000  1.0
  H  H3  1  0.46843000  0.71975000  0.29803000  1.0
  H  H4  1  0.03156000  0.78025000  0.79803000  1.0
  H  H5  1  0.53157000  0.28025000  0.70197000  1.0
  H  H6  1  0.85160000  0.20956000  0.39744000  1.0
  H  H7  1  0.35160000  0.70956000  0.10256000  1.0
  H  H8  1  0.14840000  0.79044000  0.60256000  1.0
  H  H9  1  0.64841000  0.29044000  0.89744000  1.0
  H  H10  1  0.57016000  0.15331000  0.52057000  1.0
  H  H11  1  0.07016000  0.65332000  0.97943000  1.0
  H  H12  1  0.42984000  0.84669000  0.47943000  1.0
  H  H13  1  0.92984000  0.34669000  0.02056000  1.0
  H  H14  1  0.33940000  0.07078000  0.46988000  1.0
  H  H15  1  0.83940000  0.57078000  0.03012000  1.0
  H  H16  1  0.66060000  0.92922000  0.53012000  1.0
  H  H17  1  0.16060000  0.42923000  0.96988000  1.0
  H  H18  1  0.31678000  0.94938000  0.28600000  1.0
  H  H19  1  0.81678000  0.44938000  0.21400000  1.0
  H  H20  1  0.68322000  0.05062000  0.71400000  1.0
  H  H21  1  0.18322000  0.55062000  0.78600000  1.0
  H  H22  1  0.45148000  0.97220000  0.09573000  1.0
  H  H23  1  0.95148000  0.47220000  0.40426000  1.0
  H  H24  1  0.54852000  0.02780000  0.90427000  1.0
  H  H25  1  0.04852000  0.52780000  0.59573000  1.0
  C  C26  1  0.82625000  0.16266000  0.22760000  1.0
  C  C27  1  0.32624000  0.66266000  0.27240000  1.0
  C  C28  1  0.17375000  0.83734000  0.77240000  1.0
  C  C29  1  0.67375000  0.33734000  0.72760000  1.0
  C  C30  1  0.75871000  0.15403000  0.33381000  1.0
  C  C31  1  0.25871000  0.65403000  0.16618000  1.0
  C  C32  1  0.24129000  0.84597000  0.66619000  1.0
  C  C33  1  0.74129000  0.34597000  0.83382000  1.0
  C  C34  1  0.57229000  0.07766000  0.35865000  1.0
  C  C35  1  0.07229000  0.57766000  0.14135000  1.0
  C  C36  1  0.42771000  0.92235000  0.64135000  1.0
  C  C37  1  0.92771000  0.42235000  0.85865000  1.0
  C  C38  1  0.49248000  0.06652000  0.47238000  1.0
  C  C39  1  0.99249000  0.56653000  0.02762000  1.0
  C  C40  1  0.50752000  0.93347000  0.52762000  1.0
  C  C41  1  0.00752000  0.43348000  0.97238000  1.0
  C  C42  1  0.46252000  0.00997000  0.27187000  1.0
  C  C43  1  0.96252000  0.50997000  0.22813000  1.0
  C  C44  1  0.53748000  0.99003000  0.72813000  1.0
  C  C45  1  0.03748000  0.49004000  0.77187000  1.0
  C  C46  1  0.53314000  0.01980000  0.16635000  1.0
  C  C47  1  0.03314000  0.51980000  0.33365000  1.0
  C  C48  1  0.46686000  0.98020000  0.83365000  1.0
  C  C49  1  0.96686000  0.48020000  0.66635000  1.0
  C  C50  1  0.66010000  0.74372000  0.90264000  1.0
  C  C51  1  0.16011000  0.24372000  0.59736000  1.0
  C  C52  1  0.33990000  0.25628000  0.09736000  1.0
  C  C53  1  0.83991000  0.75629000  0.40264000  1.0
  C  C54  1  0.52850000  0.61928000  0.75260000  1.0
  C  C55  1  0.02851000  0.11928000  0.74740000  1.0
  C  C56  1  0.47150000  0.38072000  0.24740000  1.0
  C  C57  1  0.97149000  0.88072000  0.25259000  1.0
  N  N58  1  0.71323000  0.09721000  0.14500000  1.0
  N  N59  1  0.21323000  0.59721000  0.35500000  1.0
  N  N60  1  0.28677000  0.90279000  0.85500000  1.0
  N  N61  1  0.78677000  0.40279000  0.64500000  1.0
  N  N62  1  0.76662000  0.82696000  0.95421000  1.0
  N  N63  1  0.26662000  0.32695000  0.54580000  1.0
  N  N64  1  0.23338000  0.17304000  0.04579000  1.0
  N  N65  1  0.73337000  0.67304000  0.45420000  1.0
  N  N66  1  0.53404000  0.64836000  0.85532000  1.0
  N  N67  1  0.03404000  0.14835000  0.64468000  1.0
  N  N68  1  0.46596000  0.35164000  0.14468000  1.0
  N  N69  1  0.96596000  0.85165000  0.35532000  1.0
  N  N70  1  0.50288000  0.58216000  0.66149000  1.0
  N  N71  1  0.00288000  0.08216000  0.83852000  1.0
  N  N72  1  0.49712000  0.41784000  0.33852000  1.0
  N  N73  1  0.99712000  0.91784000  0.16148000  1.0
  O  O74  1  0.77981000  0.10835000  0.04355000  1.0
  O  O75  1  0.27980000  0.60834000  0.45645000  1.0
  O  O76  1  0.22019000  0.89165000  0.95645000  1.0
  O  O77  1  0.72020000  0.39165000  0.54355000  1.0
