# generated using pymatgen
data_CsBH24C16(N2O3)2
_symmetry_space_group_name_H-M   'P 1'
_cell_length_a   10.12930000
_cell_length_b   10.41790000
_cell_length_c   10.41790000
_cell_angle_alpha   97.20850000
_cell_angle_beta   91.52460000
_cell_angle_gamma   91.52470000
_symmetry_Int_Tables_number   1
_chemical_formula_structural   CsBH24C16(N2O3)2
_chemical_formula_sum   'Cs2 B2 H48 C32 N8 O12'
_cell_volume   1089.78717422
_cell_formula_units_Z   2
loop_
 _symmetry_equiv_pos_site_id
 _symmetry_equiv_pos_as_xyz
  1  'x, y, z'
loop_
 _atom_site_type_symbol
 _atom_site_label
 _atom_site_symmetry_multiplicity
 _atom_site_fract_x
 _atom_site_fract_y
 _atom_site_fract_z
 _atom_site_occupancy
  Cs  Cs0  1  0.75000000  0.24367000  0.75633000  1.0
  Cs  Cs1  1  0.25000000  0.75633000  0.24367000  1.0
  B  B2  1  0.75000000  0.96895000  0.03105000  1.0
  B  B3  1  0.25000000  0.03105000  0.96895000  1.0
  H  H4  1  0.63307000  0.64034000  0.79837000  1.0
  H  H5  1  0.86693000  0.20163000  0.35966000  1.0
  H  H6  1  0.36693000  0.35966000  0.20163000  1.0
  H  H7  1  0.13307000  0.79837000  0.64034000  1.0
  H  H8  1  0.53660000  0.64742000  0.94037000  1.0
  H  H9  1  0.96340000  0.05963000  0.35258000  1.0
  H  H10  1  0.46340000  0.35258000  0.05963000  1.0
  H  H11  1  0.03660000  0.94037000  0.64742000  1.0
  H  H12  1  0.43287000  0.42858000  0.84911000  1.0
  H  H13  1  0.06713000  0.15089000  0.57142000  1.0
  H  H14  1  0.56713000  0.57142000  0.15089000  1.0
  H  H15  1  0.93287000  0.84911000  0.42858000  1.0
  H  H16  1  0.39352000  0.56168000  0.76388000  1.0
  H  H17  1  0.10648000  0.23612000  0.43832000  1.0
  H  H18  1  0.60648000  0.43832000  0.23612000  1.0
  H  H19  1  0.89352000  0.76388000  0.56168000  1.0
  H  H20  1  0.34988000  0.42109000  0.56801000  1.0
  H  H21  1  0.15012000  0.43199000  0.57891000  1.0
  H  H22  1  0.65012000  0.57891000  0.43199000  1.0
  H  H23  1  0.84988000  0.56801000  0.42109000  1.0
  H  H24  1  0.37910000  0.28691000  0.65617000  1.0
  H  H25  1  0.12090000  0.34383000  0.71309000  1.0
  H  H26  1  0.62090000  0.71309000  0.34383000  1.0
  H  H27  1  0.87910000  0.65617000  0.28691000  1.0
  H  H28  1  0.39986000  0.24536000  0.41195000  1.0
  H  H29  1  0.10014000  0.58805000  0.75464000  1.0
  H  H30  1  0.60014000  0.75464000  0.58805000  1.0
  H  H31  1  0.89986000  0.41195000  0.24535000  1.0
  H  H32  1  0.54072000  0.35369000  0.42709000  1.0
  H  H33  1  0.95928000  0.57291000  0.64631000  1.0
  H  H34  1  0.45928000  0.64631000  0.57291000  1.0
  H  H35  1  0.04072000  0.42709000  0.35369000  1.0
  H  H36  1  0.65541000  0.17722000  0.33304000  1.0
  H  H37  1  0.84459000  0.66696000  0.82278000  1.0
  H  H38  1  0.34459000  0.82278000  0.66696000  1.0
  H  H39  1  0.15541000  0.33304000  0.17722000  1.0
  H  H40  1  0.53107000  0.05459000  0.34104000  1.0
  H  H41  1  0.96893000  0.65896000  0.94541000  1.0
  H  H42  1  0.46893000  0.94541000  0.65896000  1.0
  H  H43  1  0.03107000  0.34104000  0.05459000  1.0
  H  H44  1  0.82917000  0.49417000  0.04127000  1.0
  H  H45  1  0.67083000  0.95873000  0.50583000  1.0
  H  H46  1  0.17083000  0.50584000  0.95873000  1.0
  H  H47  1  0.32917000  0.04127000  0.49417000  1.0
  H  H48  1  0.75802000  0.64953000  0.04735000  1.0
  H  H49  1  0.74198000  0.95265000  0.35047000  1.0
  H  H50  1  0.24198000  0.35047000  0.95265000  1.0
  H  H51  1  0.25802000  0.04735000  0.64953000  1.0
  C  C52  1  0.74591000  0.93005000  0.87877000  1.0
  C  C53  1  0.75409000  0.12123000  0.06995000  1.0
  C  C54  1  0.25409000  0.06995000  0.12123000  1.0
  C  C55  1  0.24591000  0.87877000  0.93005000  1.0
  C  C56  1  0.62266000  0.90790000  0.08839000  1.0
  C  C57  1  0.87734000  0.91161000  0.09210000  1.0
  C  C58  1  0.37734000  0.09210000  0.91161000  1.0
  C  C59  1  0.12265000  0.08839000  0.90790000  1.0
  C  C60  1  0.58164000  0.58135000  0.86360000  1.0
  C  C61  1  0.91836000  0.13640000  0.41865000  1.0
  C  C62  1  0.41836000  0.41865000  0.13640000  1.0
  C  C63  1  0.08164000  0.86360000  0.58136000  1.0
  C  C64  1  0.47420000  0.49879000  0.78879000  1.0
  C  C65  1  0.02580000  0.21121000  0.50122000  1.0
  C  C66  1  0.52580000  0.50122000  0.21121000  1.0
  C  C67  1  0.97420000  0.78879000  0.49879000  1.0
  C  C68  1  0.42641000  0.35631000  0.59813000  1.0
  C  C69  1  0.07359000  0.40187000  0.64369000  1.0
  C  C70  1  0.57359000  0.64369000  0.40187000  1.0
  C  C71  1  0.92641000  0.59813000  0.35631000  1.0
  C  C72  1  0.48245000  0.28544000  0.47777000  1.0
  C  C73  1  0.01755000  0.52223000  0.71456000  1.0
  C  C74  1  0.51755000  0.71456000  0.52223000  1.0
  C  C75  1  0.98245000  0.47777000  0.28544000  1.0
  C  C76  1  0.61249000  0.11068000  0.39656000  1.0
  C  C77  1  0.88751000  0.60344000  0.88932000  1.0
  C  C78  1  0.38751000  0.88932000  0.60344000  1.0
  C  C79  1  0.11249000  0.39656000  0.11068000  1.0
  C  C80  1  0.78593000  0.56326000  0.98196000  1.0
  C  C81  1  0.71407000  0.01804000  0.43674000  1.0
  C  C82  1  0.21407000  0.43674000  0.01804000  1.0
  C  C83  1  0.28593000  0.98196000  0.56326000  1.0
  N  N84  1  0.74179000  0.89709000  0.76748000  1.0
  N  N85  1  0.75821000  0.23252000  0.10291000  1.0
  N  N86  1  0.25821000  0.10291000  0.23252000  1.0
  N  N87  1  0.24179000  0.76748000  0.89709000  1.0
  N  N88  1  0.53051000  0.86127000  0.13127000  1.0
  N  N89  1  0.96949000  0.86873000  0.13874000  1.0
  N  N90  1  0.46949000  0.13874000  0.86873000  1.0
  N  N91  1  0.03051000  0.13127000  0.86126000  1.0
  O  O92  1  0.67109000  0.49806000  0.91939000  1.0
  O  O93  1  0.82891000  0.08061000  0.50194000  1.0
  O  O94  1  0.32891000  0.50194000  0.08061000  1.0
  O  O95  1  0.17109000  0.91939000  0.49806000  1.0
  O  O96  1  0.52715000  0.43141000  0.67395000  1.0
  O  O97  1  0.97285000  0.32605000  0.56859000  1.0
  O  O98  1  0.47285000  0.56859000  0.32605000  1.0
  O  O99  1  0.02715000  0.67395000  0.43141000  1.0
  O  O100  1  0.56371000  0.18359000  0.51027000  1.0
  O  O101  1  0.93629000  0.48973000  0.81641000  1.0
  O  O102  1  0.43629000  0.81641000  0.48973000  1.0
  O  O103  1  0.06371000  0.51027000  0.18359000  1.0
