# generated using pymatgen
data_ZnH4C14Br2NO6
_symmetry_space_group_name_H-M   'P 1'
_cell_length_a   11.81310000
_cell_length_b   12.21150000
_cell_length_c   13.25090000
_cell_angle_alpha   84.34810000
_cell_angle_beta   85.84810000
_cell_angle_gamma   87.09230000
_symmetry_Int_Tables_number   1
_chemical_formula_structural   ZnH4C14Br2NO6
_chemical_formula_sum   'Zn2 H8 C28 Br4 N2 O12'
_cell_volume   1895.40147802
_cell_formula_units_Z   2
loop_
 _symmetry_equiv_pos_site_id
 _symmetry_equiv_pos_as_xyz
  1  'x, y, z'
loop_
 _atom_site_type_symbol
 _atom_site_label
 _atom_site_symmetry_multiplicity
 _atom_site_fract_x
 _atom_site_fract_y
 _atom_site_fract_z
 _atom_site_occupancy
  Zn  Zn0  1  0.49703000  0.62097000  0.49001000  1.0
  Zn  Zn1  1  0.50298000  0.37903000  0.50999000  1.0
  H  H2  1  0.67818000  0.60488000  0.17513000  1.0
  H  H3  1  0.32184000  0.39508000  0.82486000  1.0
  H  H4  1  0.30141000  0.38356000  0.01335000  1.0
  H  H5  1  0.69860000  0.61643000  0.98665000  1.0
  H  H6  1  0.40892000  0.75207000  0.64263000  1.0
  H  H7  1  0.59104000  0.24795000  0.35737000  1.0
  H  H8  1  0.53627000  0.78213000  0.21590000  1.0
  H  H9  1  0.46377000  0.21783000  0.78417000  1.0
  C  C10  1  0.47983000  0.49136000  0.69808000  1.0
  C  C11  1  0.52840000  0.98494000  0.45267000  1.0
  C  C12  1  0.28240000  0.51228000  0.49322000  1.0
  C  C13  1  0.71761000  0.48772000  0.50678000  1.0
  C  C14  1  0.16024000  0.50970000  0.49457000  1.0
  C  C15  1  0.83977000  0.49029000  0.50541000  1.0
  C  C16  1  0.05699000  0.50345000  0.49796000  1.0
  C  C17  1  0.94303000  0.49651000  0.50203000  1.0
  C  C18  1  0.52602000  0.51215000  0.18802000  1.0
  C  C19  1  0.47399000  0.48784000  0.81198000  1.0
  C  C20  1  0.37241000  0.42515000  0.97182000  1.0
  C  C21  1  0.52018000  0.50864000  0.30193000  1.0
  C  C22  1  0.62762000  0.57482000  0.02817000  1.0
  C  C23  1  0.38355000  0.43183000  0.86735000  1.0
  C  C24  1  0.61647000  0.56815000  0.13264000  1.0
  C  C25  1  0.55343000  0.53456000  0.86436000  1.0
  C  C26  1  0.44657000  0.46544000  0.13563000  1.0
  C  C27  1  0.54695000  0.52810000  0.97274000  1.0
  C  C28  1  0.45307000  0.47189000  0.02726000  1.0
  C  C29  1  0.58614000  0.82632000  0.33764000  1.0
  C  C30  1  0.41391000  0.17368000  0.66240000  1.0
  C  C31  1  0.57378000  0.07232000  0.38486000  1.0
  C  C32  1  0.42617000  0.92769000  0.61512000  1.0
  C  C33  1  0.55995000  0.17953000  0.40917000  1.0
  C  C34  1  0.44004000  0.82047000  0.59084000  1.0
  C  C35  1  0.46572000  0.12827000  0.56607000  1.0
  C  C36  1  0.53429000  0.87173000  0.43396000  1.0
  C  C37  1  0.47158000  0.01508000  0.54733000  1.0
  Br  Br38  1  0.32183000  0.39497000  0.21034000  1.0
  Br  Br39  1  0.67816000  0.60506000  0.78967000  1.0
  Br  Br40  1  0.65667000  0.05389000  0.26007000  1.0
  Br  Br41  1  0.34305000  0.94616000  0.73980000  1.0
  N  N42  1  0.49280000  0.79358000  0.50184000  1.0
  N  N43  1  0.50724000  0.20642000  0.49819000  1.0
  O  O44  1  0.47306000  0.58483000  0.64777000  1.0
  O  O45  1  0.50799000  0.83058000  0.26804000  1.0
  O  O46  1  0.31876000  0.21590000  0.66938000  1.0
  O  O47  1  0.49205000  0.16939000  0.73201000  1.0
  O  O48  1  0.52693000  0.41518000  0.35224000  1.0
  O  O49  1  0.48878000  0.39808000  0.66267000  1.0
  O  O50  1  0.51124000  0.60193000  0.33733000  1.0
  O  O51  1  0.32491000  0.60661000  0.48801000  1.0
  O  O52  1  0.67510000  0.39339000  0.51199000  1.0
  O  O53  1  0.33517000  0.41854000  0.49789000  1.0
  O  O54  1  0.66483000  0.58147000  0.50212000  1.0
  O  O55  1  0.68131000  0.78415000  0.33065000  1.0
