# generated using pymatgen
data_Zn4H10C22O13
_symmetry_space_group_name_H-M   'P 1'
_cell_length_a   10.96530000
_cell_length_b   10.98210000
_cell_length_c   16.14070000
_cell_angle_alpha   98.24310000
_cell_angle_beta   91.03080000
_cell_angle_gamma   79.85800000
_symmetry_Int_Tables_number   1
_chemical_formula_structural   Zn4H10C22O13
_chemical_formula_sum   'Zn4 H10 C22 O13'
_cell_volume   1893.50450329
_cell_formula_units_Z   1
loop_
 _symmetry_equiv_pos_site_id
 _symmetry_equiv_pos_as_xyz
  1  'x, y, z'
loop_
 _atom_site_type_symbol
 _atom_site_label
 _atom_site_symmetry_multiplicity
 _atom_site_fract_x
 _atom_site_fract_y
 _atom_site_fract_z
 _atom_site_occupancy
  Zn  Zn0  1  0.40908000  0.40931000  0.56805000  1.0
  Zn  Zn1  1  0.38162000  0.60904000  0.43863000  1.0
  Zn  Zn2  1  0.61215000  0.37492000  0.42161000  1.0
  Zn  Zn3  1  0.59781000  0.60025000  0.57502000  1.0
  H  H4  1  0.59412000  0.59198000  0.01142000  1.0
  H  H5  1  0.90364000  0.74727000  0.44992000  1.0
  H  H6  1  0.40912000  0.40751000  0.98973000  1.0
  H  H7  1  0.59880000  0.97016000  0.42395000  1.0
  H  H8  1  0.40797000  0.03041000  0.56939000  1.0
  H  H9  1  0.01954000  0.37503000  0.45051000  1.0
  H  H10  1  0.02853000  0.63358000  0.68604000  1.0
  H  H11  1  0.93170000  0.84186000  0.75965000  1.0
  H  H12  1  0.82025000  0.00349000  0.67848000  1.0
  H  H13  1  0.80781000  0.95653000  0.52330000  1.0
  C  C14  1  0.47617000  0.83371000  0.51598000  1.0
  C  C15  1  0.16715000  0.53312000  0.51200000  1.0
  C  C16  1  0.83243000  0.46800000  0.48905000  1.0
  C  C17  1  0.48522000  0.47928000  0.27581000  1.0
  C  C18  1  0.51163000  0.51853000  0.72617000  1.0
  C  C19  1  0.48059000  0.47325000  0.18589000  1.0
  C  C20  1  0.46979000  0.46700000  0.02295000  1.0
  C  C21  1  0.53340000  0.53238000  0.97852000  1.0
  C  C22  1  0.97062000  0.67714000  0.56345000  1.0
  C  C23  1  0.98052000  0.70485000  0.65056000  1.0
  C  C24  1  0.92579000  0.82176000  0.69169000  1.0
  C  C25  1  0.52465000  0.52693000  0.89135000  1.0
  C  C26  1  0.86323000  0.91235000  0.64620000  1.0
  C  C27  1  0.85584000  0.88584000  0.55917000  1.0
  C  C28  1  0.90921000  0.76879000  0.51782000  1.0
  C  C29  1  0.47660000  0.47106000  0.11007000  1.0
  C  C30  1  0.51867000  0.52379000  0.81551000  1.0
  C  C31  1  0.53560000  0.02462000  0.47240000  1.0
  C  C32  1  0.46971000  0.97150000  0.52149000  1.0
  C  C33  1  0.96834000  0.46096000  0.48498000  1.0
  C  C34  1  0.02819000  0.55254000  0.51964000  1.0
  C  C35  1  0.52657000  0.16213000  0.48147000  1.0
  O  O36  1  0.49972000  0.49824000  0.49924000  1.0
  O  O37  1  0.40498000  0.56377000  0.31664000  1.0
  O  O38  1  0.57699000  0.58476000  0.69330000  1.0
  O  O39  1  0.56843000  0.40041000  0.30457000  1.0
  O  O40  1  0.44073000  0.44801000  0.68839000  1.0
  O  O41  1  0.22834000  0.45271000  0.55320000  1.0
  O  O42  1  0.77228000  0.54709000  0.54591000  1.0
  O  O43  1  0.40467000  0.78473000  0.46337000  1.0
  O  O44  1  0.59526000  0.20239000  0.43210000  1.0
  O  O45  1  0.55115000  0.77957000  0.56570000  1.0
  O  O46  1  0.45218000  0.22840000  0.53707000  1.0
  O  O47  1  0.20940000  0.60154000  0.46620000  1.0
  O  O48  1  0.78699000  0.39102000  0.43508000  1.0
