# generated using pymatgen
data_V2NiH14C12N2O7
_symmetry_space_group_name_H-M   'P 1'
_cell_length_a   9.54573000
_cell_length_b   14.47390000
_cell_length_c   14.91147281
_cell_angle_alpha   109.23762403
_cell_angle_beta   108.65112084
_cell_angle_gamma   90.00280000
_symmetry_Int_Tables_number   1
_chemical_formula_structural   V2NiH14C12N2O7
_chemical_formula_sum   'V8 Ni4 H56 C48 N8 O28'
_cell_volume   1830.18876792
_cell_formula_units_Z   4
loop_
 _symmetry_equiv_pos_site_id
 _symmetry_equiv_pos_as_xyz
  1  'x, y, z'
loop_
 _atom_site_type_symbol
 _atom_site_label
 _atom_site_symmetry_multiplicity
 _atom_site_fract_x
 _atom_site_fract_y
 _atom_site_fract_z
 _atom_site_occupancy
  V  V0  1  0.59048000  0.15246000  0.63995000  1.0
  V  V1  1  0.95069000  0.34749000  0.36000000  1.0
  V  V2  1  0.40951000  0.84754000  0.36005000  1.0
  V  V3  1  0.04932000  0.65252000  0.64001000  1.0
  V  V4  1  0.75236000  0.47639000  0.50908000  1.0
  V  V5  1  0.24336000  0.02368000  0.49094000  1.0
  V  V6  1  0.24764000  0.52361000  0.49092000  1.0
  V  V7  1  0.75665000  0.97632000  0.50906000  1.0
  Ni  Ni8  1  0.48974000  0.34656000  0.55616000  1.0
  Ni  Ni9  1  0.93361000  0.15343000  0.44382000  1.0
  Ni  Ni10  1  0.51026000  0.65344000  0.44384000  1.0
  Ni  Ni11  1  0.06638000  0.84657000  0.55618000  1.0
  H  H12  1  0.01448000  0.63665000  0.41950000  1.0
  H  H13  1  0.59504000  0.86332000  0.58067000  1.0
  H  H14  1  0.98552000  0.36335000  0.58050000  1.0
  H  H15  1  0.40496000  0.13668000  0.41933000  1.0
  H  H16  1  0.34601000  0.46880000  0.69908000  1.0
  H  H17  1  0.64719000  0.03111000  0.30127000  1.0
  H  H18  1  0.65399000  0.53120000  0.30092000  1.0
  H  H19  1  0.35281000  0.96889000  0.69873000  1.0
  H  H20  1  0.76884000  0.38825000  0.72988000  1.0
  H  H21  1  0.03892000  0.11168000  0.27003000  1.0
  H  H22  1  0.23115000  0.61175000  0.27011000  1.0
  H  H23  1  0.96108000  0.88832000  0.72997000  1.0
  H  H24  1  0.86437000  0.48933000  0.91243000  1.0
  H  H25  1  0.95164000  0.01057000  0.08744000  1.0
  H  H26  1  0.13563000  0.51067000  0.08757000  1.0
  H  H27  1  0.04835000  0.98943000  0.91255000  1.0
  H  H28  1  0.42201000  0.57498000  0.88067000  1.0
  H  H29  1  0.54129000  0.92498000  0.11967000  1.0
  H  H30  1  0.57799000  0.42502000  0.11933000  1.0
  H  H31  1  0.45872000  0.07502000  0.88034000  1.0
  H  H32  1  0.94598000  0.90002000  0.36854000  1.0
  H  H33  1  0.57777000  0.59990000  0.63155000  1.0
  H  H34  1  0.05402000  0.09997000  0.63146000  1.0
  H  H35  1  0.42223000  0.40010000  0.36845000  1.0
  H  H36  1  0.87544000  0.81645000  0.18294000  1.0
  H  H37  1  0.69267000  0.68344000  0.81718000  1.0
  H  H38  1  0.12456000  0.18355000  0.81706000  1.0
  H  H39  1  0.30733000  0.31656000  0.18282000  1.0
  H  H40  1  0.94714000  0.54110000  0.23705000  1.0
  H  H41  1  0.71000000  0.95885000  0.76311000  1.0
  H  H42  1  0.05286000  0.45890000  0.76295000  1.0
  H  H43  1  0.29000000  0.04115000  0.23689000  1.0
  H  H44  1  0.65398000  0.67255000  0.03533000  1.0
  H  H45  1  0.61835000  0.82747000  0.96481000  1.0
  H  H46  1  0.34602000  0.32745000  0.96467000  1.0
  H  H47  1  0.38165000  0.17253000  0.03519000  1.0
  H  H48  1  0.64232000  0.56395000  0.06112000  1.0
  H  H49  1  0.58096000  0.93607000  0.93904000  1.0
  H  H50  1  0.35768000  0.43605000  0.93888000  1.0
  H  H51  1  0.41904000  0.06393000  0.06096000  1.0
  H  H52  1  0.92304000  0.65649000  0.04947000  1.0
  H  H53  1  0.87333000  0.84353000  0.95071000  1.0
  H  H54  1  0.07696000  0.34351000  0.95053000  1.0
  H  H55  1  0.12667000  0.15647000  0.04929000  1.0
  H  H56  1  0.90817000  0.54401000  0.07085000  1.0
  H  H57  1  0.83705000  0.95597000  0.92924000  1.0
  H  H58  1  0.09183000  0.45599000  0.92915000  1.0
  H  H59  1  0.16295000  0.04403000  0.07076000  1.0
  H  H60  1  0.30825000  0.22298000  0.57365000  1.0
  H  H61  1  0.73474000  0.27709000  0.42633000  1.0
  H  H62  1  0.69175000  0.77702000  0.42635000  1.0
  H  H63  1  0.26526000  0.72291000  0.57367000  1.0
  H  H64  1  0.20518000  0.28068000  0.50986000  1.0
  H  H65  1  0.69523000  0.21933000  0.49001000  1.0
  H  H66  1  0.79482000  0.71932000  0.49014000  1.0
  H  H67  1  0.30476000  0.78067000  0.50998000  1.0
  C  C68  1  0.98398000  0.67364000  0.36447000  1.0
  C  C69  1  0.61957000  0.82631000  0.63567000  1.0
  C  C70  1  0.01602000  0.32636000  0.63553000  1.0
  C  C71  1  0.38043000  0.17369000  0.36433000  1.0
  C  C72  1  0.45941000  0.47541000  0.74992000  1.0
  C  C73  1  0.70961000  0.02448000  0.25032000  1.0
  C  C74  1  0.54059000  0.52459000  0.25008000  1.0
  C  C75  1  0.29039000  0.97552000  0.74968000  1.0
  C  C76  1  0.69621000  0.43052000  0.76703000  1.0
  C  C77  1  0.92917000  0.06940000  0.23297000  1.0
  C  C78  1  0.30380000  0.56948000  0.23298000  1.0
  C  C79  1  0.07082000  0.93060000  0.76702000  1.0
  C  C80  1  0.74792000  0.48758000  0.86919000  1.0
  C  C81  1  0.87862000  0.01231000  0.13081000  1.0
  C  C82  1  0.25207000  0.51241000  0.13081000  1.0
  C  C83  1  0.12138000  0.98769000  0.86919000  1.0
  C  C84  1  0.65085000  0.54057000  0.91421000  1.0
  C  C85  1  0.73646000  0.95939000  0.08593000  1.0
  C  C86  1  0.34915000  0.45943000  0.08579000  1.0
  C  C87  1  0.26353000  0.04060000  0.91406000  1.0
  C  C88  1  0.50319000  0.53389000  0.85129000  1.0
  C  C89  1  0.65182000  0.96605000  0.14895000  1.0
  C  C90  1  0.49681000  0.46611000  0.14871000  1.0
  C  C91  1  0.34818000  0.03395000  0.85105000  1.0
  C  C92  1  0.94532000  0.82058000  0.33598000  1.0
  C  C93  1  0.60963000  0.67935000  0.66413000  1.0
  C  C94  1  0.05468000  0.17942000  0.66402000  1.0
  C  C95  1  0.39037000  0.32065000  0.33587000  1.0
  C  C96  1  0.90512000  0.77295000  0.23228000  1.0
  C  C97  1  0.67302000  0.72695000  0.76783000  1.0
  C  C98  1  0.09488000  0.22705000  0.76772000  1.0
  C  C99  1  0.32697000  0.27304000  0.23216000  1.0
  C  C100  1  0.90590000  0.67079000  0.19314000  1.0
  C  C101  1  0.71270000  0.82914000  0.80699000  1.0
  C  C102  1  0.09410000  0.32921000  0.80686000  1.0
  C  C103  1  0.28730000  0.17086000  0.19301000  1.0
  C  C104  1  0.94460000  0.62077000  0.26189000  1.0
  C  C105  1  0.68271000  0.87917000  0.73826000  1.0
  C  C106  1  0.05541000  0.37923000  0.73811000  1.0
  C  C107  1  0.31729000  0.12083000  0.26174000  1.0
  C  C108  1  0.69782000  0.60075000  0.02528000  1.0
  C  C109  1  0.67227000  0.89926000  0.97486000  1.0
  C  C110  1  0.30218000  0.39925000  0.97472000  1.0
  C  C111  1  0.32773000  0.10074000  0.02514000  1.0
  C  C112  1  0.86625000  0.61628000  0.08174000  1.0
  C  C113  1  0.78426000  0.88371000  0.91838000  1.0
  C  C114  1  0.13375000  0.38372000  0.91826000  1.0
  C  C115  1  0.21574000  0.11629000  0.08162000  1.0
  N  N116  1  0.55454000  0.42444000  0.70831000  1.0
  N  N117  1  0.84631000  0.07545000  0.29178000  1.0
  N  N118  1  0.44546000  0.57556000  0.29169000  1.0
  N  N119  1  0.15369000  0.92455000  0.70822000  1.0
  N  N120  1  0.98627000  0.77192000  0.40152000  1.0
  N  N121  1  0.58490000  0.72803000  0.59860000  1.0
  N  N122  1  0.01373000  0.22808000  0.59848000  1.0
  N  N123  1  0.41510000  0.27197000  0.40140000  1.0
  O  O124  1  0.64742000  0.21036000  0.76121000  1.0
  O  O125  1  0.88627000  0.28960000  0.23873000  1.0
  O  O126  1  0.35259000  0.78964000  0.23879000  1.0
  O  O127  1  0.11372000  0.71040000  0.76126000  1.0
  O  O128  1  0.67555000  0.40569000  0.55333000  1.0
  O  O129  1  0.12236000  0.09437000  0.44666000  1.0
  O  O130  1  0.32446000  0.59432000  0.44667000  1.0
  O  O131  1  0.87764000  0.90563000  0.55334000  1.0
  O  O132  1  0.29876000  0.28842000  0.56744000  1.0
  O  O133  1  0.73134000  0.21163000  0.43247000  1.0
  O  O134  1  0.70125000  0.71158000  0.43256000  1.0
  O  O135  1  0.26866000  0.78837000  0.56753000  1.0
  O  O136  1  0.91423000  0.54948000  0.60892000  1.0
  O  O137  1  0.30582000  0.95073000  0.39123000  1.0
  O  O138  1  0.08577000  0.45053000  0.39109000  1.0
  O  O139  1  0.69418000  0.04928000  0.60877000  1.0
  O  O140  1  0.37054000  0.45343000  0.53269000  1.0
  O  O141  1  0.83794000  0.04660000  0.46745000  1.0
  O  O142  1  0.62946000  0.54657000  0.46731000  1.0
  O  O143  1  0.16205000  0.95340000  0.53255000  1.0
  O  O144  1  0.79963000  0.39496000  0.40462000  1.0
  O  O145  1  0.39481000  0.10516000  0.59549000  1.0
  O  O146  1  0.20037000  0.60505000  0.59539000  1.0
  O  O147  1  0.60520000  0.89484000  0.40451000  1.0
  O  O148  1  0.60434000  0.23087000  0.57883000  1.0
  O  O149  1  0.02551000  0.26907000  0.42111000  1.0
  O  O150  1  0.39565000  0.76913000  0.42116000  1.0
  O  O151  1  0.97448000  0.73094000  0.57889000  1.0
