# generated using pymatgen
data_SnH8(CO)4
_symmetry_space_group_name_H-M   'P 1'
_cell_length_a   5.84750000
_cell_length_b   9.38516000
_cell_length_c   12.47630000
_cell_angle_alpha   90.00040000
_cell_angle_beta   89.99970000
_cell_angle_gamma   90.00000000
_symmetry_Int_Tables_number   1
_chemical_formula_structural   SnH8(CO)4
_chemical_formula_sum   'Sn4 H32 C16 O16'
_cell_volume   684.69588929
_cell_formula_units_Z   4
loop_
 _symmetry_equiv_pos_site_id
 _symmetry_equiv_pos_as_xyz
  1  'x, y, z'
loop_
 _atom_site_type_symbol
 _atom_site_label
 _atom_site_symmetry_multiplicity
 _atom_site_fract_x
 _atom_site_fract_y
 _atom_site_fract_z
 _atom_site_occupancy
  Sn  Sn0  1  0.59886000  0.75001000  0.80203000  1.0
  Sn  Sn1  1  0.09885000  0.25001000  0.69797000  1.0
  Sn  Sn2  1  0.90113000  0.75000000  0.30204000  1.0
  Sn  Sn3  1  0.40112000  0.25000000  0.19796000  1.0
  H  H4  1  0.76449000  0.75000000  0.59786000  1.0
  H  H5  1  0.26449000  0.25000000  0.90214000  1.0
  H  H6  1  0.73550000  0.75000000  0.09786000  1.0
  H  H7  1  0.23549000  0.25000000  0.40215000  1.0
  H  H8  1  0.95123000  0.84585000  0.68598000  1.0
  H  H9  1  0.45124000  0.15414000  0.81403000  1.0
  H  H10  1  0.54877000  0.65414000  0.18598000  1.0
  H  H11  1  0.04876000  0.34586000  0.31402000  1.0
  H  H12  1  0.04876000  0.15415000  0.31402000  1.0
  H  H13  1  0.54875000  0.84586000  0.18597000  1.0
  H  H14  1  0.45123000  0.34585000  0.81402000  1.0
  H  H15  1  0.95124000  0.65414000  0.68598000  1.0
  H  H16  1  0.18636000  0.74999000  0.89407000  1.0
  H  H17  1  0.68637000  0.25000000  0.60594000  1.0
  H  H18  1  0.31363000  0.75000000  0.39406000  1.0
  H  H19  1  0.81364000  0.25000000  0.10593000  1.0
  H  H20  1  0.38527000  0.84595000  0.97696000  1.0
  H  H21  1  0.88527000  0.15404000  0.52305000  1.0
  H  H22  1  0.11473000  0.65404000  0.47695000  1.0
  H  H23  1  0.61474000  0.34595000  0.02304000  1.0
  H  H24  1  0.61473000  0.15405000  0.02305000  1.0
  H  H25  1  0.11473000  0.84595000  0.47695000  1.0
  H  H26  1  0.88526000  0.34595000  0.52305000  1.0
  H  H27  1  0.38526000  0.65405000  0.97696000  1.0
  H  H28  1  0.52084000  0.92157000  0.57610000  1.0
  H  H29  1  0.02086000  0.07842000  0.92391000  1.0
  H  H30  1  0.97913000  0.57842000  0.07610000  1.0
  H  H31  1  0.47917000  0.42157000  0.42390000  1.0
  H  H32  1  0.47917000  0.07843000  0.42390000  1.0
  H  H33  1  0.97914000  0.92158000  0.07610000  1.0
  H  H34  1  0.02085000  0.42157000  0.92390000  1.0
  H  H35  1  0.52087000  0.57842000  0.57610000  1.0
  C  C36  1  0.84718000  0.75000000  0.67656000  1.0
  C  C37  1  0.34717000  0.25000000  0.82343000  1.0
  C  C38  1  0.65281000  0.75000000  0.17657000  1.0
  C  C39  1  0.15282000  0.25000000  0.32344000  1.0
  C  C40  1  0.35771000  0.75000000  0.92893000  1.0
  C  C41  1  0.85771000  0.25000000  0.57107000  1.0
  C  C42  1  0.14229000  0.75000000  0.42892000  1.0
  C  C43  1  0.64229000  0.25000000  0.07107000  1.0
  C  C44  1  0.40641000  0.97613000  0.63362000  1.0
  C  C45  1  0.90640000  0.02386000  0.86638000  1.0
  C  C46  1  0.09358000  0.52387000  0.13362000  1.0
  C  C47  1  0.59360000  0.47613000  0.36637000  1.0
  C  C48  1  0.59360000  0.02387000  0.36637000  1.0
  C  C49  1  0.09359000  0.97613000  0.13363000  1.0
  C  C50  1  0.90642000  0.47613000  0.86639000  1.0
  C  C51  1  0.40642000  0.52386000  0.63362000  1.0
  O  O52  1  0.38085000  0.92461000  0.72708000  1.0
  O  O53  1  0.88085000  0.07539000  0.77294000  1.0
  O  O54  1  0.11916000  0.57540000  0.22707000  1.0
  O  O55  1  0.61916000  0.42462000  0.27293000  1.0
  O  O56  1  0.61915000  0.07539000  0.27293000  1.0
  O  O57  1  0.11917000  0.92461000  0.22707000  1.0
  O  O58  1  0.88085000  0.42461000  0.77293000  1.0
  O  O59  1  0.38085000  0.57539000  0.72706000  1.0
  O  O60  1  0.80713000  0.58746000  0.90080000  1.0
  O  O61  1  0.30713000  0.41254000  0.59920000  1.0
  O  O62  1  0.69290000  0.91254000  0.40080000  1.0
  O  O63  1  0.19288000  0.08746000  0.09920000  1.0
  O  O64  1  0.19288000  0.41254000  0.09920000  1.0
  O  O65  1  0.69290000  0.58746000  0.40080000  1.0
  O  O66  1  0.30711000  0.08746000  0.59921000  1.0
  O  O67  1  0.80712000  0.91254000  0.90080000  1.0
