# generated using pymatgen
data_NaMgH2C3O7
_symmetry_space_group_name_H-M   'P 1'
_cell_length_a   5.91197000
_cell_length_b   7.04824000
_cell_length_c   15.55940000
_cell_angle_alpha   89.99970000
_cell_angle_beta   89.99990000
_cell_angle_gamma   78.86100000
_symmetry_Int_Tables_number   1
_chemical_formula_structural   NaMgH2C3O7
_chemical_formula_sum   'Na4 Mg4 H8 C12 O28'
_cell_volume   636.13047461
_cell_formula_units_Z   4
loop_
 _symmetry_equiv_pos_site_id
 _symmetry_equiv_pos_as_xyz
  1  'x, y, z'
loop_
 _atom_site_type_symbol
 _atom_site_label
 _atom_site_symmetry_multiplicity
 _atom_site_fract_x
 _atom_site_fract_y
 _atom_site_fract_z
 _atom_site_occupancy
  Na  Na0  1  0.46698000  0.69321000  0.82003000  1.0
  Na  Na1  1  0.53303000  0.80679000  0.32003000  1.0
  Na  Na2  1  0.53302000  0.30679000  0.17997000  1.0
  Na  Na3  1  0.46697000  0.19321000  0.67997000  1.0
  Mg  Mg4  1  0.72631000  0.71043000  0.09977000  1.0
  Mg  Mg5  1  0.27369000  0.78957000  0.59977000  1.0
  Mg  Mg6  1  0.27369000  0.28957000  0.90023000  1.0
  Mg  Mg7  1  0.72631000  0.21043000  0.40023000  1.0
  H  H8  1  0.16430000  0.64057000  0.97348000  1.0
  H  H9  1  0.83571000  0.85943000  0.47348000  1.0
  H  H10  1  0.83570000  0.35943000  0.02652000  1.0
  H  H11  1  0.16430000  0.14057000  0.52652000  1.0
  H  H12  1  0.04330000  0.64684000  0.87944000  1.0
  H  H13  1  0.95670000  0.85316000  0.37944000  1.0
  H  H14  1  0.95670000  0.35316000  0.12056000  1.0
  H  H15  1  0.04330000  0.14684000  0.62056000  1.0
  C  C16  1  0.50201000  0.92692000  0.96292000  1.0
  C  C17  1  0.49798000  0.57308000  0.46292000  1.0
  C  C18  1  0.49798000  0.07308000  0.03708000  1.0
  C  C19  1  0.50201000  0.42692000  0.53708000  1.0
  C  C20  1  0.80066000  0.78560000  0.64846000  1.0
  C  C21  1  0.19934000  0.71439000  0.14845000  1.0
  C  C22  1  0.19934000  0.21439000  0.35154000  1.0
  C  C23  1  0.80066000  0.28561000  0.85154000  1.0
  C  C24  1  0.94737000  0.75349000  0.73228000  1.0
  C  C25  1  0.05264000  0.74651000  0.23228000  1.0
  C  C26  1  0.05263000  0.24651000  0.26772000  1.0
  C  C27  1  0.94736000  0.25349000  0.76772000  1.0
  O  O28  1  0.60997000  0.75559000  0.97543000  1.0
  O  O29  1  0.39003000  0.74441000  0.47543000  1.0
  O  O30  1  0.39003000  0.24441000  0.02457000  1.0
  O  O31  1  0.60997000  0.25559000  0.52457000  1.0
  O  O32  1  0.39586000  0.99012000  0.89494000  1.0
  O  O33  1  0.60414000  0.50988000  0.39494000  1.0
  O  O34  1  0.60414000  0.00988000  0.10506000  1.0
  O  O35  1  0.39586000  0.49012000  0.60506000  1.0
  O  O36  1  0.58387000  0.82216000  0.65684000  1.0
  O  O37  1  0.41614000  0.67784000  0.15684000  1.0
  O  O38  1  0.41613000  0.17784000  0.34316000  1.0
  O  O39  1  0.58386000  0.32216000  0.84316000  1.0
  O  O40  1  0.91541000  0.77371000  0.57892000  1.0
  O  O41  1  0.08459000  0.72629000  0.07892000  1.0
  O  O42  1  0.08459000  0.22629000  0.42108000  1.0
  O  O43  1  0.91541000  0.27371000  0.92108000  1.0
  O  O44  1  0.15655000  0.77098000  0.72406000  1.0
  O  O45  1  0.84346000  0.72901000  0.22406000  1.0
  O  O46  1  0.84345000  0.22901000  0.27594000  1.0
  O  O47  1  0.15654000  0.27099000  0.77594000  1.0
  O  O48  1  0.85305000  0.71212000  0.80047000  1.0
  O  O49  1  0.14696000  0.78788000  0.30047000  1.0
  O  O50  1  0.14695000  0.28788000  0.19953000  1.0
  O  O51  1  0.85304000  0.21212000  0.69953000  1.0
  O  O52  1  0.18163000  0.58573000  0.91450000  1.0
  O  O53  1  0.81837000  0.91427000  0.41450000  1.0
  O  O54  1  0.81837000  0.41427000  0.08550000  1.0
  O  O55  1  0.18163000  0.08573000  0.58550000  1.0
