# generated using pymatgen
data_Sn2H18C13O5
_symmetry_space_group_name_H-M   'P 1'
_cell_length_a   9.35749000
_cell_length_b   18.88950000
_cell_length_c   18.89030000
_cell_angle_alpha   117.31800000
_cell_angle_beta   99.51170000
_cell_angle_gamma   99.50780000
_symmetry_Int_Tables_number   1
_chemical_formula_structural   Sn2H18C13O5
_chemical_formula_sum   'Sn12 H108 C78 O30'
_cell_volume   2812.98735225
_cell_formula_units_Z   6
loop_
 _symmetry_equiv_pos_site_id
 _symmetry_equiv_pos_as_xyz
  1  'x, y, z'
loop_
 _atom_site_type_symbol
 _atom_site_label
 _atom_site_symmetry_multiplicity
 _atom_site_fract_x
 _atom_site_fract_y
 _atom_site_fract_z
 _atom_site_occupancy
  Sn  Sn0  1  0.32737000  0.93681000  0.44127000  1.0
  Sn  Sn1  1  0.23796000  0.66872000  0.66706000  1.0
  Sn  Sn2  1  0.39040000  0.50442000  0.06313000  1.0
  Sn  Sn3  1  0.56929000  0.99843000  0.33120000  1.0
  Sn  Sn4  1  0.88611000  0.55879000  0.49545000  1.0
  Sn  Sn5  1  0.57069000  0.33284000  0.00166000  1.0
  Sn  Sn6  1  0.67263000  0.06319000  0.55873000  1.0
  Sn  Sn7  1  0.76205000  0.33128000  0.33294000  1.0
  Sn  Sn8  1  0.60960000  0.49558000  0.93687000  1.0
  Sn  Sn9  1  0.43071000  0.00157000  0.66880000  1.0
  Sn  Sn10  1  0.11389000  0.44121000  0.50455000  1.0
  Sn  Sn11  1  0.42931000  0.66716000  0.99834000  1.0
  H  H12  1  0.09783000  0.91946000  0.69842000  1.0
  H  H13  1  0.96278000  0.85983000  0.71898000  1.0
  H  H14  1  0.73385000  0.77942000  0.62778000  1.0
  H  H15  1  0.54442000  0.72341000  0.49458000  1.0
  H  H16  1  0.61918000  0.73425000  0.37764000  1.0
  H  H17  1  0.88625000  0.80800000  0.40180000  1.0
  H  H18  1  0.46259000  0.64610000  0.59347000  1.0
  H  H19  1  0.52402000  0.74666000  0.68621000  1.0
  H  H20  1  0.39838000  0.73167000  0.59517000  1.0
  H  H21  1  0.06715000  0.72316000  0.77131000  1.0
  H  H22  1  0.24025000  0.71751000  0.82444000  1.0
  H  H23  1  0.08925000  0.62477000  0.75614000  1.0
  H  H24  1  0.42296000  0.80470000  0.35343000  1.0
  H  H25  1  0.38589000  0.80393000  0.44386000  1.0
  H  H26  1  0.23306000  0.76958000  0.35376000  1.0
  H  H27  1  0.10585000  0.00913000  0.43561000  1.0
  H  H28  1  0.27178000  0.06723000  0.42992000  1.0
  H  H29  1  0.15700000  0.97298000  0.33963000  1.0
  H  H30  1  0.17858000  0.77899000  0.08045000  1.0
  H  H31  1  0.10305000  0.85912000  0.14010000  1.0
  H  H32  1  0.95482000  0.84834000  0.22059000  1.0
  H  H33  1  0.82142000  0.77104000  0.27650000  1.0
  H  H34  1  0.88508000  0.64315000  0.26546000  1.0
  H  H35  1  0.07840000  0.59362000  0.19168000  1.0
  H  H36  1  0.81638000  0.94732000  0.35382000  1.0
  H  H37  1  0.77729000  0.93952000  0.25325000  1.0
  H  H38  1  0.66649000  0.86350000  0.26828000  1.0
  H  H39  1  0.34403000  0.04823000  0.27681000  1.0
  H  H40  1  0.52273000  0.10705000  0.28244000  1.0
  H  H41  1  0.46450000  0.13144000  0.37519000  1.0
  H  H42  1  0.61830000  0.54873000  0.19518000  1.0
  H  H43  1  0.58201000  0.63995000  0.19596000  1.0
  H  H44  1  0.46369000  0.58426000  0.23042000  1.0
  H  H45  1  0.09657000  0.42654000  0.99093000  1.0
  H  H46  1  0.20425000  0.36266000  0.93278000  1.0
  H  H47  1  0.18384000  0.36666000  0.02706000  1.0
  H  H48  1  0.39942000  0.30155000  0.22113000  1.0
  H  H49  1  0.24384000  0.28101000  0.14093000  1.0
  H  H50  1  0.10607000  0.37228000  0.15173000  1.0
  H  H51  1  0.04999000  0.50550000  0.22901000  1.0
  H  H52  1  0.24175000  0.62236000  0.35682000  1.0
  H  H53  1  0.48462000  0.59811000  0.40633000  1.0
  H  H54  1  0.86898000  0.40645000  0.05260000  1.0
  H  H55  1  0.83767000  0.31370000  0.06042000  1.0
  H  H56  1  0.80307000  0.40473000  0.13644000  1.0
  H  H57  1  0.29564000  0.22852000  0.95172000  1.0
  H  H58  1  0.41576000  0.17548000  0.89299000  1.0
  H  H59  1  0.33306000  0.24380000  0.86857000  1.0
  H  H60  1  0.07009000  0.64651000  0.45128000  1.0
  H  H61  1  0.94253000  0.55607000  0.36000000  1.0
  H  H62  1  0.87993000  0.64622000  0.41566000  1.0
  H  H63  1  0.67024000  0.56440000  0.57338000  1.0
  H  H64  1  0.84179000  0.57013000  0.63722000  1.0
  H  H65  1  0.81730000  0.66041000  0.63327000  1.0
  H  H66  1  0.90217000  0.08054000  0.30158000  1.0
  H  H67  1  0.03722000  0.14017000  0.28102000  1.0
  H  H68  1  0.26615000  0.22058000  0.37222000  1.0
  H  H69  1  0.45558000  0.27659000  0.50542000  1.0
  H  H70  1  0.38082000  0.26575000  0.62236000  1.0
  H  H71  1  0.11375000  0.19200000  0.59820000  1.0
  H  H72  1  0.53741000  0.35390000  0.40653000  1.0
  H  H73  1  0.47598000  0.25334000  0.31379000  1.0
  H  H74  1  0.60162000  0.26833000  0.40483000  1.0
  H  H75  1  0.93285000  0.27684000  0.22869000  1.0
  H  H76  1  0.75975000  0.28249000  0.17556000  1.0
  H  H77  1  0.91075000  0.37523000  0.24386000  1.0
  H  H78  1  0.57704000  0.19530000  0.64657000  1.0
  H  H79  1  0.61411000  0.19607000  0.55614000  1.0
  H  H80  1  0.76694000  0.23042000  0.64624000  1.0
  H  H81  1  0.89415000  0.99087000  0.56439000  1.0
  H  H82  1  0.72822000  0.93277000  0.57008000  1.0
  H  H83  1  0.84299000  0.02702000  0.66037000  1.0
  H  H84  1  0.82142000  0.22101000  0.91955000  1.0
  H  H85  1  0.89694000  0.14088000  0.85990000  1.0
  H  H86  1  0.04518000  0.15166000  0.77941000  1.0
  H  H87  1  0.17858000  0.22896000  0.72350000  1.0
  H  H88  1  0.11492000  0.35686000  0.73454000  1.0
  H  H89  1  0.92161000  0.40638000  0.80832000  1.0
  H  H90  1  0.18361000  0.05268000  0.64618000  1.0
  H  H91  1  0.22271000  0.06048000  0.74675000  1.0
  H  H92  1  0.33351000  0.13650000  0.73172000  1.0
  H  H93  1  0.65597000  0.95177000  0.72319000  1.0
  H  H94  1  0.47727000  0.89295000  0.71756000  1.0
  H  H95  1  0.53550000  0.86856000  0.62481000  1.0
  H  H96  1  0.38170000  0.45127000  0.80482000  1.0
  H  H97  1  0.41799000  0.36005000  0.80404000  1.0
  H  H98  1  0.53631000  0.41574000  0.76958000  1.0
  H  H99  1  0.90343000  0.57346000  0.00907000  1.0
  H  H100  1  0.79575000  0.63734000  0.06722000  1.0
  H  H101  1  0.81616000  0.63334000  0.97294000  1.0
  H  H102  1  0.60058000  0.69845000  0.77887000  1.0
  H  H103  1  0.75616000  0.71899000  0.85907000  1.0
  H  H104  1  0.89393000  0.62772000  0.84827000  1.0
  H  H105  1  0.95001000  0.49450000  0.77099000  1.0
  H  H106  1  0.75825000  0.37763000  0.64318000  1.0
  H  H107  1  0.51538000  0.40189000  0.59367000  1.0
  H  H108  1  0.13102000  0.59355000  0.94740000  1.0
  H  H109  1  0.16233000  0.68630000  0.93958000  1.0
  H  H110  1  0.19693000  0.59527000  0.86356000  1.0
  H  H111  1  0.70436000  0.77148000  0.04828000  1.0
  H  H112  1  0.58425000  0.82452000  0.10701000  1.0
  H  H113  1  0.66694000  0.75620000  0.13142000  1.0
  H  H114  1  0.92991000  0.35349000  0.54872000  1.0
  H  H115  1  0.05747000  0.44393000  0.64000000  1.0
  H  H116  1  0.12007000  0.35378000  0.58434000  1.0
  H  H117  1  0.32976000  0.43560000  0.42662000  1.0
  H  H118  1  0.15821000  0.42987000  0.36278000  1.0
  H  H119  1  0.18270000  0.33959000  0.36673000  1.0
  C  C120  1  0.13171000  0.80347000  0.67718000  1.0
  C  C121  1  0.02721000  0.85659000  0.67419000  1.0
  C  C122  1  0.91881000  0.82336000  0.59077000  1.0
  C  C123  1  0.76814000  0.78416000  0.57730000  1.0
  C  C124  1  0.66075000  0.75248000  0.50194000  1.0
  C  C125  1  0.70202000  0.75932000  0.43709000  1.0
  C  C126  1  0.85035000  0.79946000  0.44989000  1.0
  C  C127  1  0.95944000  0.83114000  0.52541000  1.0
  C  C128  1  0.11482000  0.87496000  0.53313000  1.0
  C  C129  1  0.43114000  0.70231000  0.63121000  1.0
  C  C130  1  0.14668000  0.68603000  0.76786000  1.0
  C  C131  1  0.34426000  0.81276000  0.39157000  1.0
  C  C132  1  0.19912000  0.00524000  0.40719000  1.0
  C  C133  1  0.32837000  0.87377000  0.19645000  1.0
  C  C134  1  0.17081000  0.81760000  0.14331000  1.0
  C  C135  1  0.09577000  0.76739000  0.17656000  1.0
  C  C136  1  0.98434000  0.79310000  0.21579000  1.0
  C  C137  1  0.90861000  0.74932000  0.24738000  1.0
  C  C138  1  0.94287000  0.67756000  0.24042000  1.0
  C  C139  1  0.05106000  0.65028000  0.20028000  1.0
  C  C140  1  0.12852000  0.69422000  0.16870000  1.0
  C  C141  1  0.24006000  0.65815000  0.12490000  1.0
  C  C142  1  0.72872000  0.92888000  0.29760000  1.0
  C  C143  1  0.46069000  0.08193000  0.31394000  1.0
  C  C144  1  0.53156000  0.57885000  0.18717000  1.0
  C  C145  1  0.19366000  0.40195000  0.99478000  1.0
  C  C146  1  0.45454000  0.32275000  0.12637000  1.0
  C  C147  1  0.35305000  0.32580000  0.18250000  1.0
  C  C148  1  0.32804000  0.40921000  0.23266000  1.0
  C  C149  1  0.19086000  0.42272000  0.20695000  1.0
  C  C150  1  0.15892000  0.49810000  0.25071000  1.0
  C  C151  1  0.26507000  0.56289000  0.32241000  1.0
  C  C152  1  0.40056000  0.55005000  0.34969000  1.0
  C  C153  1  0.43407000  0.47452000  0.30581000  1.0
  C  C154  1  0.58182000  0.46683000  0.34184000  1.0
  C  C155  1  0.79976000  0.36868000  0.07105000  1.0
  C  C156  1  0.37868000  0.23203000  0.91809000  1.0
  C  C157  1  0.95323000  0.60838000  0.42108000  1.0
  C  C158  1  0.79193000  0.59286000  0.59793000  1.0
  C  C159  1  0.86829000  0.19653000  0.32282000  1.0
  C  C160  1  0.97279000  0.14341000  0.32581000  1.0
  C  C161  1  0.08119000  0.17664000  0.40923000  1.0
  C  C162  1  0.23186000  0.21584000  0.42270000  1.0
  C  C163  1  0.33925000  0.24752000  0.49806000  1.0
  C  C164  1  0.29797000  0.24068000  0.56291000  1.0
  C  C165  1  0.14965000  0.20054000  0.55011000  1.0
  C  C166  1  0.04056000  0.16886000  0.47459000  1.0
  C  C167  1  0.88518000  0.12504000  0.46688000  1.0
  C  C168  1  0.56886000  0.29769000  0.36879000  1.0
  C  C169  1  0.85333000  0.31397000  0.23214000  1.0
  C  C170  1  0.65574000  0.18724000  0.60843000  1.0
  C  C171  1  0.80088000  0.99476000  0.59281000  1.0
  C  C172  1  0.67163000  0.12623000  0.80355000  1.0
  C  C173  1  0.82919000  0.18240000  0.85669000  1.0
  C  C174  1  0.90423000  0.23261000  0.82344000  1.0
  C  C175  1  0.01566000  0.20690000  0.78421000  1.0
  C  C176  1  0.09139000  0.25068000  0.75262000  1.0
  C  C177  1  0.05712000  0.32244000  0.75958000  1.0
  C  C178  1  0.94894000  0.34972000  0.79972000  1.0
  C  C179  1  0.87148000  0.30578000  0.83130000  1.0
  C  C180  1  0.75994000  0.34185000  0.87510000  1.0
  C  C181  1  0.27128000  0.07112000  0.70240000  1.0
  C  C182  1  0.53931000  0.91807000  0.68606000  1.0
  C  C183  1  0.46844000  0.42115000  0.81283000  1.0
  C  C184  1  0.80634000  0.59805000  0.00522000  1.0
  C  C185  1  0.54547000  0.67725000  0.87363000  1.0
  C  C186  1  0.64695000  0.67420000  0.81750000  1.0
  C  C187  1  0.67196000  0.59079000  0.76734000  1.0
  C  C188  1  0.80914000  0.57727000  0.79305000  1.0
  C  C189  1  0.84109000  0.50190000  0.74929000  1.0
  C  C190  1  0.73494000  0.43711000  0.67759000  1.0
  C  C191  1  0.59944000  0.44995000  0.65031000  1.0
  C  C192  1  0.56593000  0.52548000  0.69419000  1.0
  C  C193  1  0.41818000  0.53317000  0.65816000  1.0
  C  C194  1  0.20024000  0.63132000  0.92895000  1.0
  C  C195  1  0.62132000  0.76797000  0.08191000  1.0
  C  C196  1  0.04677000  0.39162000  0.57892000  1.0
  C  C197  1  0.20807000  0.40714000  0.40207000  1.0
  O  O198  1  0.08608000  0.72516000  0.62007000  1.0
  O  O199  1  0.24965000  0.83266000  0.73472000  1.0
  O  O200  1  0.22633000  0.88249000  0.58737000  1.0
  O  O201  1  0.12530000  0.90341000  0.48382000  1.0
  O  O202  1  0.45675000  0.00379000  0.56341000  1.0
  O  O203  1  0.36090000  0.89500000  0.27477000  1.0
  O  O204  1  0.41719000  0.90218000  0.16732000  1.0
  O  O205  1  0.34415000  0.70490000  0.11750000  1.0
  O  O206  1  0.22188000  0.58037000  0.09632000  1.0
  O  O207  1  0.45288000  0.55949000  0.99606000  1.0
  O  O208  1  0.46598000  0.37984000  0.10513000  1.0
  O  O209  1  0.51487000  0.26519000  0.09801000  1.0
  O  O210  1  0.63908000  0.41263000  0.29513000  1.0
  O  O211  1  0.64170000  0.51619000  0.41957000  1.0
  O  O212  1  0.89329000  0.43664000  0.44056000  1.0
  O  O213  1  0.91392000  0.27483000  0.37992000  1.0
  O  O214  1  0.75035000  0.16734000  0.26528000  1.0
  O  O215  1  0.77367000  0.11751000  0.41263000  1.0
  O  O216  1  0.87470000  0.09659000  0.51618000  1.0
  O  O217  1  0.54325000  0.99621000  0.43659000  1.0
  O  O218  1  0.63910000  0.10500000  0.72523000  1.0
  O  O219  1  0.58281000  0.09783000  0.83268000  1.0
  O  O220  1  0.65585000  0.29510000  0.88250000  1.0
  O  O221  1  0.77812000  0.41963000  0.90368000  1.0
  O  O222  1  0.54712000  0.44051000  0.00394000  1.0
  O  O223  1  0.53402000  0.62016000  0.89487000  1.0
  O  O224  1  0.48513000  0.73481000  0.90200000  1.0
  O  O225  1  0.36092000  0.58737000  0.70487000  1.0
  O  O226  1  0.35830000  0.48381000  0.58043000  1.0
  O  O227  1  0.10671000  0.56336000  0.55944000  1.0
