# generated using pymatgen
data_Er2H11C15O16
_symmetry_space_group_name_H-M   'P 1'
_cell_length_a   9.71494000
_cell_length_b   10.95780000
_cell_length_c   10.99830000
_cell_angle_alpha   74.21900000
_cell_angle_beta   88.45640000
_cell_angle_gamma   65.50900000
_symmetry_Int_Tables_number   1
_chemical_formula_structural   Er2H11C15O16
_chemical_formula_sum   'Er4 H22 C30 O32'
_cell_volume   1020.38139001
_cell_formula_units_Z   2
loop_
 _symmetry_equiv_pos_site_id
 _symmetry_equiv_pos_as_xyz
  1  'x, y, z'
loop_
 _atom_site_type_symbol
 _atom_site_label
 _atom_site_symmetry_multiplicity
 _atom_site_fract_x
 _atom_site_fract_y
 _atom_site_fract_z
 _atom_site_occupancy
  Er  Er0  1  0.02438000  0.07536000  0.82128000  1.0
  Er  Er1  1  0.97563000  0.92463000  0.17873000  1.0
  Er  Er2  1  0.99922000  0.50452000  0.74676000  1.0
  Er  Er3  1  0.00077000  0.49549000  0.25324000  1.0
  H  H4  1  0.49961000  0.80190000  0.17370000  1.0
  H  H5  1  0.50039000  0.19810000  0.82631000  1.0
  H  H6  1  0.51240000  0.26296000  0.09611000  1.0
  H  H7  1  0.48759000  0.73705000  0.90388000  1.0
  H  H8  1  0.39256000  0.74453000  0.35597000  1.0
  H  H9  1  0.60743000  0.25547000  0.64404000  1.0
  H  H10  1  0.05928000  0.63626000  0.92140000  1.0
  H  H11  1  0.94073000  0.36373000  0.07860000  1.0
  H  H12  1  0.91250000  0.73973000  0.82381000  1.0
  H  H13  1  0.08754000  0.26032000  0.17617000  1.0
  H  H14  1  0.97658000  0.73481000  0.51078000  1.0
  H  H15  1  0.02341000  0.26519000  0.48922000  1.0
  H  H16  1  0.81467000  0.73756000  0.52802000  1.0
  H  H17  1  0.18532000  0.26245000  0.47199000  1.0
  H  H18  1  0.29156000  0.96880000  0.68136000  1.0
  H  H19  1  0.70846000  0.03121000  0.31865000  1.0
  H  H20  1  0.27793000  0.12312000  0.66791000  1.0
  H  H21  1  0.72207000  0.87689000  0.33210000  1.0
  H  H22  1  0.94494000  0.97208000  0.62738000  1.0
  H  H23  1  0.05508000  0.02791000  0.37261000  1.0
  H  H24  1  0.06326000  0.83819000  0.72457000  1.0
  H  H25  1  0.93680000  0.16181000  0.27539000  1.0
  C  C26  1  0.22304000  0.00178000  0.10555000  1.0
  C  C27  1  0.77696000  0.99820000  0.89447000  1.0
  C  C28  1  0.36297000  0.00514000  0.04818000  1.0
  C  C29  1  0.63703000  0.99487000  0.95182000  1.0
  C  C30  1  0.50064000  0.88895000  0.09751000  1.0
  C  C31  1  0.49936000  0.11105000  0.90249000  1.0
  C  C32  1  0.36190000  0.11791000  0.94876000  1.0
  C  C33  1  0.63811000  0.88209000  0.05124000  1.0
  C  C34  1  0.76329000  0.24855000  0.99201000  1.0
  C  C35  1  0.23671000  0.75145000  0.00799000  1.0
  C  C36  1  0.63150000  0.38149000  0.99638000  1.0
  C  C37  1  0.36848000  0.61849000  0.00363000  1.0
  C  C38  1  0.50747000  0.36710000  0.05478000  1.0
  C  C39  1  0.49251000  0.63289000  0.94522000  1.0
  C  C40  1  0.22255000  0.24931000  0.88893000  1.0
  C  C41  1  0.77745000  0.75068000  0.11108000  1.0
  C  C42  1  0.69948000  0.63593000  0.41802000  1.0
  C  C43  1  0.30051000  0.36408000  0.58199000  1.0
  C  C44  1  0.65348000  0.43181000  0.54675000  1.0
  C  C45  1  0.34651000  0.56819000  0.45326000  1.0
  C  C46  1  0.43984000  0.63820000  0.41983000  1.0
  C  C47  1  0.56016000  0.36180000  0.58018000  1.0
  C  C48  1  0.59353000  0.56951000  0.46522000  1.0
  C  C49  1  0.40646000  0.43049000  0.53479000  1.0
  C  C50  1  0.81242000  0.36847000  0.60888000  1.0
  C  C51  1  0.18758000  0.63153000  0.39112000  1.0
  C  C52  1  0.75693000  0.53907000  0.88784000  1.0
  C  C53  1  0.24307000  0.46094000  0.11215000  1.0
  C  C54  1  0.62461000  0.51626000  0.94217000  1.0
  C  C55  1  0.37539000  0.48372000  0.05783000  1.0
  O  O56  1  0.73968000  0.64335000  0.79428000  1.0
  O  O57  1  0.26029000  0.35665000  0.20571000  1.0
  O  O58  1  0.89302000  0.44730000  0.93522000  1.0
  O  O59  1  0.10698000  0.55268000  0.06477000  1.0
  O  O60  1  0.02031000  0.67823000  0.82710000  1.0
  O  O61  1  0.97971000  0.32176000  0.17289000  1.0
  O  O62  1  0.91126000  0.71520000  0.57628000  1.0
  O  O63  1  0.08873000  0.28481000  0.42372000  1.0
  O  O64  1  0.81848000  0.55929000  0.37591000  1.0
  O  O65  1  0.18151000  0.44073000  0.62409000  1.0
  O  O66  1  0.22042000  0.36524000  0.89080000  1.0
  O  O67  1  0.77957000  0.63476000  0.10919000  1.0
  O  O68  1  0.11177000  0.24741000  0.82933000  1.0
  O  O69  1  0.88822000  0.75260000  0.17067000  1.0
  O  O70  1  0.85207000  0.45139000  0.64359000  1.0
  O  O71  1  0.14794000  0.54861000  0.35640000  1.0
  O  O72  1  0.89848000  0.23875000  0.62540000  1.0
  O  O73  1  0.10152000  0.76125000  0.37460000  1.0
  O  O74  1  0.24545000  0.04862000  0.71487000  1.0
  O  O75  1  0.75456000  0.95138000  0.28515000  1.0
  O  O76  1  0.04481000  0.93381000  0.67390000  1.0
  O  O77  1  0.95521000  0.06620000  0.32607000  1.0
  O  O78  1  0.81936000  0.24051000  0.88746000  1.0
  O  O79  1  0.18063000  0.75948000  0.11254000  1.0
  O  O80  1  0.80200000  0.15096000  0.09619000  1.0
  O  O81  1  0.19799000  0.84903000  0.90380000  1.0
  O  O82  1  0.22747000  0.94738000  0.22263000  1.0
  O  O83  1  0.77255000  0.05260000  0.77737000  1.0
  O  O84  1  0.09889000  0.05014000  0.03259000  1.0
  O  O85  1  0.90111000  0.94985000  0.96741000  1.0
  O  O86  1  0.66615000  0.75975000  0.42067000  1.0
  O  O87  1  0.33384000  0.24026000  0.57934000  1.0
