# generated using pymatgen
data_SnH13(C4O)2
_symmetry_space_group_name_H-M   'P 1'
_cell_length_a   9.92722000
_cell_length_b   10.09750000
_cell_length_c   22.75820000
_cell_angle_alpha   89.99950000
_cell_angle_beta   89.99950000
_cell_angle_gamma   89.99940000
_symmetry_Int_Tables_number   1
_chemical_formula_structural   SnH13(C4O)2
_chemical_formula_sum   'Sn8 H104 C64 O16'
_cell_volume   2281.28433342
_cell_formula_units_Z   8
loop_
 _symmetry_equiv_pos_site_id
 _symmetry_equiv_pos_as_xyz
  1  'x, y, z'
loop_
 _atom_site_type_symbol
 _atom_site_label
 _atom_site_symmetry_multiplicity
 _atom_site_fract_x
 _atom_site_fract_y
 _atom_site_fract_z
 _atom_site_occupancy
  Sn  Sn0  1  0.32372000  0.45012000  0.76258000  1.0
  Sn  Sn1  1  0.19888000  0.68237000  0.97219000  1.0
  Sn  Sn2  1  0.69889000  0.31761000  0.52781000  1.0
  Sn  Sn3  1  0.82375000  0.54990000  0.73741000  1.0
  Sn  Sn4  1  0.67625000  0.04989000  0.26258000  1.0
  Sn  Sn5  1  0.80111000  0.81759000  0.47219000  1.0
  Sn  Sn6  1  0.30113000  0.18236000  0.02781000  1.0
  Sn  Sn7  1  0.17627000  0.95012000  0.23741000  1.0
  H  H8  1  0.37688000  0.68090000  0.81844000  1.0
  H  H9  1  0.26361000  0.71167000  0.75912000  1.0
  H  H10  1  0.20103000  0.64228000  0.82629000  1.0
  H  H11  1  0.22292000  0.47145000  0.65185000  1.0
  H  H12  1  0.30860000  0.31674000  0.65896000  1.0
  H  H13  1  0.14195000  0.33693000  0.68836000  1.0
  H  H14  1  0.43624000  0.25160000  0.82683000  1.0
  H  H15  1  0.54186000  0.29015000  0.76503000  1.0
  H  H16  1  0.54357000  0.39411000  0.82797000  1.0
  H  H17  1  0.88545000  0.38584000  0.87778000  1.0
  H  H18  1  0.11269000  0.19945000  0.91682000  1.0
  H  H19  1  0.96599000  0.23731000  0.95703000  1.0
  H  H20  1  0.07783000  0.11746000  0.79988000  1.0
  H  H21  1  0.96668000  0.91987000  0.75742000  1.0
  H  H22  1  0.72347000  0.87731000  0.77669000  1.0
  H  H23  1  0.59261000  0.03415000  0.83928000  1.0
  H  H24  1  0.70301000  0.23453000  0.87961000  1.0
  H  H25  1  0.03921000  0.88930000  0.94104000  1.0
  H  H26  1  0.16018000  0.86204000  0.88433000  1.0
  H  H27  1  0.01583000  0.75674000  0.88980000  1.0
  H  H28  1  0.13518000  0.73931000  0.08573000  1.0
  H  H29  1  0.01047000  0.63097000  0.05477000  1.0
  H  H30  1  0.16783000  0.56488000  0.07879000  1.0
  H  H31  1  0.37200000  0.52708000  0.91060000  1.0
  H  H32  1  0.45281000  0.68181000  0.92683000  1.0
  H  H33  1  0.43999000  0.55557000  0.98202000  1.0
  H  H34  1  0.38546000  0.61418000  0.62222000  1.0
  H  H35  1  0.61271000  0.80055000  0.58317000  1.0
  H  H36  1  0.46600000  0.76270000  0.54297000  1.0
  H  H37  1  0.57784000  0.88254000  0.70012000  1.0
  H  H38  1  0.46668000  0.08012000  0.74259000  1.0
  H  H39  1  0.22350000  0.12270000  0.72332000  1.0
  H  H40  1  0.09262000  0.96588000  0.66073000  1.0
  H  H41  1  0.20300000  0.76550000  0.62039000  1.0
  H  H42  1  0.53919000  0.11072000  0.55896000  1.0
  H  H43  1  0.66013000  0.13797000  0.61567000  1.0
  H  H44  1  0.51582000  0.24330000  0.61018000  1.0
  H  H45  1  0.63518000  0.26070000  0.41426000  1.0
  H  H46  1  0.51048000  0.36903000  0.44524000  1.0
  H  H47  1  0.66783000  0.43513000  0.42121000  1.0
  H  H48  1  0.87199000  0.47292000  0.58940000  1.0
  H  H49  1  0.95282000  0.31817000  0.57318000  1.0
  H  H50  1  0.94002000  0.44442000  0.51798000  1.0
  H  H51  1  0.87690000  0.31911000  0.68155000  1.0
  H  H52  1  0.76360000  0.28833000  0.74087000  1.0
  H  H53  1  0.70104000  0.35774000  0.67370000  1.0
  H  H54  1  0.72292000  0.52857000  0.84815000  1.0
  H  H55  1  0.80861000  0.68327000  0.84103000  1.0
  H  H56  1  0.64196000  0.66309000  0.81163000  1.0
  H  H57  1  0.93624000  0.74843000  0.67317000  1.0
  H  H58  1  0.04188000  0.70984000  0.73496000  1.0
  H  H59  1  0.04355000  0.60592000  0.67202000  1.0
  H  H60  1  0.62310000  0.81912000  0.31845000  1.0
  H  H61  1  0.73640000  0.78834000  0.25914000  1.0
  H  H62  1  0.79896000  0.85776000  0.32631000  1.0
  H  H63  1  0.77707000  0.02857000  0.15185000  1.0
  H  H64  1  0.69140000  0.18327000  0.15896000  1.0
  H  H65  1  0.85803000  0.16308000  0.18837000  1.0
  H  H66  1  0.56376000  0.24844000  0.32682000  1.0
  H  H67  1  0.45812000  0.20987000  0.26502000  1.0
  H  H68  1  0.45642000  0.10594000  0.32797000  1.0
  H  H69  1  0.11452000  0.11415000  0.37777000  1.0
  H  H70  1  0.88730000  0.30054000  0.41682000  1.0
  H  H71  1  0.03401000  0.26267000  0.45702000  1.0
  H  H72  1  0.92218000  0.38255000  0.29988000  1.0
  H  H73  1  0.03334000  0.58013000  0.25742000  1.0
  H  H74  1  0.27653000  0.62269000  0.27669000  1.0
  H  H75  1  0.40739000  0.46584000  0.33928000  1.0
  H  H76  1  0.29700000  0.26545000  0.37960000  1.0
  H  H77  1  0.96078000  0.61068000  0.44103000  1.0
  H  H78  1  0.83983000  0.63795000  0.38433000  1.0
  H  H79  1  0.98417000  0.74325000  0.38981000  1.0
  H  H80  1  0.86485000  0.76068000  0.58573000  1.0
  H  H81  1  0.98953000  0.86902000  0.55475000  1.0
  H  H82  1  0.83218000  0.93510000  0.57879000  1.0
  H  H83  1  0.62801000  0.97291000  0.41060000  1.0
  H  H84  1  0.54717000  0.81818000  0.42682000  1.0
  H  H85  1  0.56000000  0.94442000  0.48202000  1.0
  H  H86  1  0.61456000  0.88582000  0.12223000  1.0
  H  H87  1  0.38734000  0.69945000  0.08318000  1.0
  H  H88  1  0.53404000  0.73730000  0.04298000  1.0
  H  H89  1  0.42216000  0.61747000  0.20013000  1.0
  H  H90  1  0.53328000  0.41988000  0.24261000  1.0
  H  H91  1  0.77647000  0.37727000  0.22335000  1.0
  H  H92  1  0.90736000  0.53407000  0.16075000  1.0
  H  H93  1  0.79701000  0.73447000  0.12041000  1.0
  H  H94  1  0.46079000  0.38928000  0.05897000  1.0
  H  H95  1  0.33982000  0.36202000  0.11567000  1.0
  H  H96  1  0.48418000  0.25672000  0.11020000  1.0
  H  H97  1  0.36483000  0.23932000  0.91427000  1.0
  H  H98  1  0.48956000  0.13097000  0.94523000  1.0
  H  H99  1  0.33218000  0.06487000  0.92120000  1.0
  H  H100  1  0.12800000  0.02707000  0.08939000  1.0
  H  H101  1  0.04720000  0.18181000  0.07317000  1.0
  H  H102  1  0.06001000  0.05557000  0.01798000  1.0
  H  H103  1  0.12312000  0.18091000  0.18154000  1.0
  H  H104  1  0.23638000  0.21167000  0.24086000  1.0
  H  H105  1  0.29896000  0.14228000  0.17370000  1.0
  H  H106  1  0.27707000  0.97146000  0.34814000  1.0
  H  H107  1  0.19138000  0.81675000  0.34104000  1.0
  H  H108  1  0.35802000  0.83693000  0.31163000  1.0
  H  H109  1  0.06375000  0.75158000  0.17316000  1.0
  H  H110  1  0.95811000  0.79016000  0.23496000  1.0
  H  H111  1  0.95643000  0.89411000  0.17202000  1.0
  C  C112  1  0.28631000  0.64538000  0.79589000  1.0
  C  C113  1  0.23886000  0.38555000  0.68044000  1.0
  C  C114  1  0.47980000  0.33115000  0.80035000  1.0
  C  C115  1  0.05773000  0.37730000  0.82306000  1.0
  C  C116  1  0.96408000  0.31258000  0.86803000  1.0
  C  C117  1  0.03816000  0.27777000  0.92495000  1.0
  C  C118  1  0.10921000  0.39408000  0.95358000  1.0
  C  C119  1  0.89769000  0.19028000  0.84213000  1.0
  C  C120  1  0.97104000  0.09992000  0.80802000  1.0
  C  C121  1  0.90853000  0.98833000  0.78436000  1.0
  C  C122  1  0.77219000  0.96445000  0.79522000  1.0
  C  C123  1  0.69892000  0.05224000  0.83021000  1.0
  C  C124  1  0.76139000  0.16479000  0.85324000  1.0
  C  C125  1  0.09044000  0.81342000  0.91480000  1.0
  C  C126  1  0.11869000  0.65098000  0.05883000  1.0
  C  C127  1  0.38965000  0.60212000  0.94450000  1.0
  C  C128  1  0.55773000  0.62273000  0.67694000  1.0
  C  C129  1  0.46408000  0.68745000  0.63196000  1.0
  C  C130  1  0.53817000  0.72223000  0.57504000  1.0
  C  C131  1  0.60922000  0.60589000  0.54642000  1.0
  C  C132  1  0.39768000  0.80974000  0.65788000  1.0
  C  C133  1  0.47105000  0.90010000  0.69198000  1.0
  C  C134  1  0.40852000  0.01167000  0.71565000  1.0
  C  C135  1  0.27219000  0.03557000  0.70478000  1.0
  C  C136  1  0.19892000  0.94777000  0.66980000  1.0
  C  C137  1  0.26137000  0.83525000  0.64675000  1.0
  C  C138  1  0.59043000  0.18661000  0.58519000  1.0
  C  C139  1  0.61870000  0.34903000  0.44117000  1.0
  C  C140  1  0.88967000  0.39787000  0.55551000  1.0
  C  C141  1  0.78632000  0.35463000  0.70410000  1.0
  C  C142  1  0.73886000  0.61447000  0.81955000  1.0
  C  C143  1  0.97980000  0.66886000  0.69964000  1.0
  C  C144  1  0.71368000  0.85464000  0.29590000  1.0
  C  C145  1  0.76112000  0.11446000  0.18044000  1.0
  C  C146  1  0.52019000  0.16888000  0.30034000  1.0
  C  C147  1  0.94227000  0.12273000  0.32305000  1.0
  C  C148  1  0.03592000  0.18742000  0.36803000  1.0
  C  C149  1  0.96184000  0.22221000  0.42495000  1.0
  C  C150  1  0.89078000  0.10589000  0.45357000  1.0
  C  C151  1  0.10232000  0.30970000  0.34212000  1.0
  C  C152  1  0.02897000  0.40010000  0.30803000  1.0
  C  C153  1  0.09148000  0.51167000  0.28436000  1.0
  C  C154  1  0.22781000  0.53556000  0.29522000  1.0
  C  C155  1  0.30109000  0.44775000  0.33020000  1.0
  C  C156  1  0.23863000  0.33522000  0.35325000  1.0
  C  C157  1  0.90956000  0.68657000  0.41480000  1.0
  C  C158  1  0.88131000  0.84900000  0.55882000  1.0
  C  C159  1  0.61033000  0.89786000  0.44449000  1.0
  C  C160  1  0.44226000  0.87728000  0.17694000  1.0
  C  C161  1  0.53594000  0.81255000  0.13198000  1.0
  C  C162  1  0.46187000  0.77775000  0.07506000  1.0
  C  C163  1  0.39080000  0.89407000  0.04643000  1.0
  C  C164  1  0.60232000  0.69026000  0.15788000  1.0
  C  C165  1  0.52895000  0.59991000  0.19199000  1.0
  C  C166  1  0.59144000  0.48834000  0.21567000  1.0
  C  C167  1  0.72778000  0.46442000  0.20481000  1.0
  C  C168  1  0.80107000  0.55219000  0.16982000  1.0
  C  C169  1  0.73863000  0.66473000  0.14677000  1.0
  C  C170  1  0.40957000  0.31339000  0.08520000  1.0
  C  C171  1  0.38132000  0.15098000  0.94117000  1.0
  C  C172  1  0.11035000  0.10212000  0.05550000  1.0
  C  C173  1  0.21368000  0.14537000  0.20410000  1.0
  C  C174  1  0.26112000  0.88555000  0.31955000  1.0
  C  C175  1  0.02019000  0.83114000  0.19964000  1.0
  O  O176  1  0.01246000  0.45818000  0.78574000  1.0
  O  O177  1  0.18245000  0.34329000  0.82439000  1.0
  O  O178  1  0.07964000  0.51011000  0.93496000  1.0
  O  O179  1  0.19341000  0.37441000  0.99467000  1.0
  O  O180  1  0.51248000  0.54186000  0.71426000  1.0
  O  O181  1  0.68246000  0.65672000  0.67561000  1.0
  O  O182  1  0.57963000  0.48987000  0.56505000  1.0
  O  O183  1  0.69340000  0.62559000  0.50532000  1.0
  O  O184  1  0.98752000  0.04186000  0.28572000  1.0
  O  O185  1  0.81753000  0.15673000  0.32438000  1.0
  O  O186  1  0.92035000  0.98987000  0.43494000  1.0
  O  O187  1  0.80661000  0.12558000  0.49467000  1.0
  O  O188  1  0.48753000  0.95816000  0.21427000  1.0
  O  O189  1  0.31755000  0.84328000  0.17561000  1.0
  O  O190  1  0.42038000  0.01011000  0.06505000  1.0
  O  O191  1  0.30662000  0.87442000  0.00533000  1.0
