# generated using pymatgen
data_NiH20C26(NO5)2
_symmetry_space_group_name_H-M   'P 1'
_cell_length_a   6.53338000
_cell_length_b   8.57376000
_cell_length_c   11.24100000
_cell_angle_alpha   87.52210000
_cell_angle_beta   79.09100000
_cell_angle_gamma   81.65440000
_symmetry_Int_Tables_number   1
_chemical_formula_structural   NiH20C26(NO5)2
_chemical_formula_sum   'Ni1 H20 C26 N2 O10'
_cell_volume   611.66500965
_cell_formula_units_Z   1
loop_
 _symmetry_equiv_pos_site_id
 _symmetry_equiv_pos_as_xyz
  1  'x, y, z'
loop_
 _atom_site_type_symbol
 _atom_site_label
 _atom_site_symmetry_multiplicity
 _atom_site_fract_x
 _atom_site_fract_y
 _atom_site_fract_z
 _atom_site_occupancy
  Ni  Ni0  1  0.00000000  0.50000000  1.00000000  1.0
  H  H1  1  0.68757000  0.44039000  0.14031000  1.0
  H  H2  1  0.31243000  0.55959000  0.85969000  1.0
  H  H3  1  0.68746000  0.38608000  0.99901000  1.0
  H  H4  1  0.31254000  0.61394000  0.00098000  1.0
  H  H5  1  0.13322000  0.40240000  0.69419000  1.0
  H  H6  1  0.86679000  0.59759000  0.30580000  1.0
  H  H7  1  0.19894000  0.54086000  0.40309000  1.0
  H  H8  1  0.80106000  0.45914000  0.59689000  1.0
  H  H9  1  0.31576000  0.89955000  0.62629000  1.0
  H  H10  1  0.68422000  0.10042000  0.37371000  1.0
  H  H11  1  0.26737000  0.09847000  0.46438000  1.0
  H  H12  1  0.73262000  0.90153000  0.53563000  1.0
  H  H13  1  0.41393000  0.19851000  0.28277000  1.0
  H  H14  1  0.58607000  0.80149000  0.71723000  1.0
  H  H15  1  0.32305000  0.41255000  0.14278000  1.0
  H  H16  1  0.67694000  0.58744000  0.85722000  1.0
  H  H17  1  0.87277000  0.18069000  0.03694000  1.0
  H  H18  1  0.12725000  0.81931000  0.96307000  1.0
  H  H19  1  0.94052000  0.95706000  0.17483000  1.0
  H  H20  1  0.05950000  0.04294000  0.82517000  1.0
  C  C21  1  0.16690000  0.71519000  0.20159000  1.0
  C  C22  1  0.83312000  0.28485000  0.79839000  1.0
  C  C23  1  0.20022000  0.77241000  0.32040000  1.0
  C  C24  1  0.79980000  0.22758000  0.67960000  1.0
  C  C25  1  0.21910000  0.66271000  0.41445000  1.0
  C  C26  1  0.78090000  0.33728000  0.58555000  1.0
  C  C27  1  0.26339000  0.70683000  0.52423000  1.0
  C  C28  1  0.73661000  0.29316000  0.47577000  1.0
  C  C29  1  0.28703000  0.86406000  0.53980000  1.0
  C  C30  1  0.71296000  0.13593000  0.46019000  1.0
  C  C31  1  0.26199000  0.97484000  0.44800000  1.0
  C  C32  1  0.73799000  0.02515000  0.55201000  1.0
  C  C33  1  0.21890000  0.93193000  0.33685000  1.0
  C  C34  1  0.78111000  0.06807000  0.66315000  1.0
  C  C35  1  0.18242000  0.05606000  0.24510000  1.0
  C  C36  1  0.81760000  0.94393000  0.75490000  1.0
  C  C37  1  0.29014000  0.18780000  0.23226000  1.0
  C  C38  1  0.70986000  0.81219000  0.76775000  1.0
  C  C39  1  0.24096000  0.30995000  0.15314000  1.0
  C  C40  1  0.75903000  0.69004000  0.84688000  1.0
  C  C41  1  0.99117000  0.18035000  0.09349000  1.0
  C  C42  1  0.00884000  0.81965000  0.90653000  1.0
  C  C43  1  0.03257000  0.05406000  0.17076000  1.0
  C  C44  1  0.96744000  0.94594000  0.82925000  1.0
  C  C45  1  0.26930000  0.59232000  0.62760000  1.0
  C  C46  1  0.73068000  0.40767000  0.37240000  1.0
  N  N47  1  0.08985000  0.30947000  0.08622000  1.0
  N  N48  1  0.91016000  0.69054000  0.91378000  1.0
  O  O49  1  0.70917000  0.47342000  0.05252000  1.0
  O  O50  1  0.29083000  0.52658000  0.94748000  1.0
  O  O51  1  0.30880000  0.72882000  0.10996000  1.0
  O  O52  1  0.69118000  0.27124000  0.89003000  1.0
  O  O53  1  0.99801000  0.65558000  0.20016000  1.0
  O  O54  1  0.00200000  0.34444000  0.79983000  1.0
  O  O55  1  0.33310000  0.62618000  0.71976000  1.0
  O  O56  1  0.66686000  0.37383000  0.28024000  1.0
  O  O57  1  0.19722000  0.46022000  0.61269000  1.0
  O  O58  1  0.80279000  0.53975000  0.38729000  1.0
