# generated using pymatgen
data_AgH11C13SN3(OF)3
_symmetry_space_group_name_H-M   'P 1'
_cell_length_a   6.69420000
_cell_length_b   14.60910000
_cell_length_c   16.11781963
_cell_angle_alpha   89.99972876
_cell_angle_beta   101.16204946
_cell_angle_gamma   89.99920000
_symmetry_Int_Tables_number   1
_chemical_formula_structural   AgH11C13SN3(OF)3
_chemical_formula_sum   'Ag4 H44 C52 S4 N12 O12 F12'
_cell_volume   1546.44489735
_cell_formula_units_Z   4
loop_
 _symmetry_equiv_pos_site_id
 _symmetry_equiv_pos_as_xyz
  1  'x, y, z'
loop_
 _atom_site_type_symbol
 _atom_site_label
 _atom_site_symmetry_multiplicity
 _atom_site_fract_x
 _atom_site_fract_y
 _atom_site_fract_z
 _atom_site_occupancy
  Ag  Ag0  1  0.68667000  0.19815000  0.83970000  1.0
  Ag  Ag1  1  0.31332000  0.69815000  0.66030000  1.0
  Ag  Ag2  1  0.31334000  0.80185000  0.16031000  1.0
  Ag  Ag3  1  0.68666000  0.30185000  0.33970000  1.0
  H  H4  1  0.78577000  0.86562000  0.88839000  1.0
  H  H5  1  0.21423000  0.36562000  0.61161000  1.0
  H  H6  1  0.21422000  0.13438000  0.11161000  1.0
  H  H7  1  0.78579000  0.63438000  0.38839000  1.0
  H  H8  1  0.83551000  0.85366000  0.20000000  1.0
  H  H9  1  0.16451000  0.35367000  0.30000000  1.0
  H  H10  1  0.16451000  0.14634000  0.80000000  1.0
  H  H11  1  0.83550000  0.64633000  0.70000000  1.0
  H  H12  1  0.73616000  0.00294000  0.96274000  1.0
  H  H13  1  0.26383000  0.50294000  0.53725000  1.0
  H  H14  1  0.26383000  0.99706000  0.03726000  1.0
  H  H15  1  0.73618000  0.49706000  0.46274000  1.0
  H  H16  1  0.88495000  0.71261000  0.12553000  1.0
  H  H17  1  0.11507000  0.21261000  0.37447000  1.0
  H  H18  1  0.11507000  0.28739000  0.87447000  1.0
  H  H19  1  0.88493000  0.78739000  0.62553000  1.0
  H  H20  1  0.93197000  0.63913000  0.84710000  1.0
  H  H21  1  0.06804000  0.13913000  0.65290000  1.0
  H  H22  1  0.06804000  0.36087000  0.15290000  1.0
  H  H23  1  0.93197000  0.86087000  0.34710000  1.0
  H  H24  1  0.70961000  0.70981000  0.83713000  1.0
  H  H25  1  0.29038000  0.20981000  0.66286000  1.0
  H  H26  1  0.29038000  0.29019000  0.16287000  1.0
  H  H27  1  0.70962000  0.79019000  0.33713000  1.0
  H  H28  1  0.95229000  0.76060000  0.84474000  1.0
  H  H29  1  0.04770000  0.26060000  0.65525000  1.0
  H  H30  1  0.04770000  0.23941000  0.15526000  1.0
  H  H31  1  0.95230000  0.73940000  0.34474000  1.0
  H  H32  1  0.02707000  0.57372000  0.96109000  1.0
  H  H33  1  0.97293000  0.07373000  0.53890000  1.0
  H  H34  1  0.97292000  0.42627000  0.03890000  1.0
  H  H35  1  0.02707000  0.92627000  0.46109000  1.0
  H  H36  1  0.09910000  0.63635000  0.05709000  1.0
  H  H37  1  0.90091000  0.13635000  0.44291000  1.0
  H  H38  1  0.90091000  0.36365000  0.94291000  1.0
  H  H39  1  0.09909000  0.86365000  0.55708000  1.0
  H  H40  1  0.85290000  0.58590000  0.03163000  1.0
  H  H41  1  0.14709000  0.08591000  0.46836000  1.0
  H  H42  1  0.14709000  0.41409000  0.96836000  1.0
  H  H43  1  0.85291000  0.91409000  0.53163000  1.0
  H  H44  1  0.77495000  0.00481000  0.20627000  1.0
  H  H45  1  0.22506000  0.50482000  0.29373000  1.0
  H  H46  1  0.22505000  0.99519000  0.79373000  1.0
  H  H47  1  0.77495000  0.49519000  0.70627000  1.0
  C  C48  1  0.85285000  0.77810000  0.00079000  1.0
  C  C49  1  0.14715000  0.27810000  0.49921000  1.0
  C  C50  1  0.14715000  0.22190000  0.99922000  1.0
  C  C51  1  0.85284000  0.72190000  0.50078000  1.0
  C  C52  1  0.78590000  0.94102000  0.08916000  1.0
  C  C53  1  0.21411000  0.44102000  0.41084000  1.0
  C  C54  1  0.21409000  0.05898000  0.91084000  1.0
  C  C55  1  0.78591000  0.55898000  0.58916000  1.0
  C  C56  1  0.51800000  0.99162000  0.63942000  1.0
  C  C57  1  0.48202000  0.49161000  0.86059000  1.0
  C  C58  1  0.48200000  0.00838000  0.36058000  1.0
  C  C59  1  0.51798000  0.50838000  0.13941000  1.0
  C  C60  1  0.75823000  0.01753000  0.13862000  1.0
  C  C61  1  0.24178000  0.51753000  0.36139000  1.0
  C  C62  1  0.24177000  0.98247000  0.86139000  1.0
  C  C63  1  0.75823000  0.48247000  0.63861000  1.0
  C  C64  1  0.80054000  0.86235000  0.95679000  1.0
  C  C65  1  0.19946000  0.36235000  0.54321000  1.0
  C  C66  1  0.19945000  0.13765000  0.04321000  1.0
  C  C67  1  0.80055000  0.63765000  0.45679000  1.0
  C  C68  1  0.82889000  0.85566000  0.13192000  1.0
  C  C69  1  0.17112000  0.35566000  0.36808000  1.0
  C  C70  1  0.17111000  0.14434000  0.86808000  1.0
  C  C71  1  0.82889000  0.64434000  0.63192000  1.0
  C  C72  1  0.77175000  0.94079000  0.99973000  1.0
  C  C73  1  0.22825000  0.44079000  0.50027000  1.0
  C  C74  1  0.22824000  0.05921000  0.00027000  1.0
  C  C75  1  0.77177000  0.55921000  0.49973000  1.0
  C  C76  1  0.69580000  0.17310000  0.17859000  1.0
  C  C77  1  0.30420000  0.67310000  0.32141000  1.0
  C  C78  1  0.30419000  0.82690000  0.82141000  1.0
  C  C79  1  0.69581000  0.32690000  0.67859000  1.0
  C  C80  1  0.86186000  0.77656000  0.09030000  1.0
  C  C81  1  0.13816000  0.27657000  0.40970000  1.0
  C  C82  1  0.13815000  0.22344000  0.90970000  1.0
  C  C83  1  0.86184000  0.72344000  0.59029000  1.0
  C  C84  1  0.71560000  0.10905000  0.11556000  1.0
  C  C85  1  0.28441000  0.60905000  0.38445000  1.0
  C  C86  1  0.28440000  0.89094000  0.88445000  1.0
  C  C87  1  0.71559000  0.39095000  0.61555000  1.0
  C  C88  1  0.87119000  0.70319000  0.86701000  1.0
  C  C89  1  0.12881000  0.20319000  0.63299000  1.0
  C  C90  1  0.12880000  0.29682000  0.13299000  1.0
  C  C91  1  0.87119000  0.79681000  0.36700000  1.0
  C  C92  1  0.97215000  0.62015000  0.00491000  1.0
  C  C93  1  0.02786000  0.12015000  0.49509000  1.0
  C  C94  1  0.02785000  0.37985000  0.99509000  1.0
  C  C95  1  0.97216000  0.87985000  0.50491000  1.0
  C  C96  1  0.68927000  0.14383000  0.03293000  1.0
  C  C97  1  0.31072000  0.64383000  0.46707000  1.0
  C  C98  1  0.31072000  0.85617000  0.96707000  1.0
  C  C99  1  0.68928000  0.35617000  0.53293000  1.0
  S  S100  1  0.74750000  0.97784000  0.72535000  1.0
  S  S101  1  0.25248000  0.47783000  0.77466000  1.0
  S  S102  1  0.25249000  0.02216000  0.27466000  1.0
  S  S103  1  0.74751000  0.52217000  0.22534000  1.0
  N  N104  1  0.89674000  0.70310000  0.95902000  1.0
  N  N105  1  0.10325000  0.20310000  0.54097000  1.0
  N  N106  1  0.10326000  0.29690000  0.04098000  1.0
  N  N107  1  0.89674000  0.79690000  0.45902000  1.0
  N  N108  1  0.66732000  0.17279000  0.96423000  1.0
  N  N109  1  0.33267000  0.67278000  0.53577000  1.0
  N  N110  1  0.33267000  0.82721000  0.03577000  1.0
  N  N111  1  0.66732000  0.32721000  0.46423000  1.0
  N  N112  1  0.68038000  0.22609000  0.23116000  1.0
  N  N113  1  0.31963000  0.72609000  0.26885000  1.0
  N  N114  1  0.31960000  0.77391000  0.76884000  1.0
  N  N115  1  0.68039000  0.27391000  0.73116000  1.0
  O  O116  1  0.69587000  0.03272000  0.79461000  1.0
  O  O117  1  0.30410000  0.53273000  0.70540000  1.0
  O  O118  1  0.30410000  0.96728000  0.20540000  1.0
  O  O119  1  0.69589000  0.46728000  0.29460000  1.0
  O  O120  1  0.90979000  0.01465000  0.68645000  1.0
  O  O121  1  0.09021000  0.51464000  0.81357000  1.0
  O  O122  1  0.09020000  0.98536000  0.31356000  1.0
  O  O123  1  0.90979000  0.48536000  0.18644000  1.0
  O  O124  1  0.75731000  0.87970000  0.74162000  1.0
  O  O125  1  0.24271000  0.37970000  0.75840000  1.0
  O  O126  1  0.24270000  0.12031000  0.25839000  1.0
  O  O127  1  0.75731000  0.62030000  0.24161000  1.0
  F  F128  1  0.52308000  0.93246000  0.57471000  1.0
  F  F129  1  0.47694000  0.43246000  0.92529000  1.0
  F  F130  1  0.47693000  0.06753000  0.42529000  1.0
  F  F131  1  0.52306000  0.56754000  0.07471000  1.0
  F  F132  1  0.34210000  0.97554000  0.66751000  1.0
  F  F133  1  0.65790000  0.47554000  0.83249000  1.0
  F  F134  1  0.65789000  0.02445000  0.33249000  1.0
  F  F135  1  0.34210000  0.52446000  0.16751000  1.0
  F  F136  1  0.50791000  0.07819000  0.60771000  1.0
  F  F137  1  0.49210000  0.57818000  0.89230000  1.0
  F  F138  1  0.49207000  0.92181000  0.39229000  1.0
  F  F139  1  0.50791000  0.42182000  0.10771000  1.0
