# generated using pymatgen
data_GdH6(CO2)4
_symmetry_space_group_name_H-M   'P 1'
_cell_length_a   7.38053000
_cell_length_b   7.86650000
_cell_length_c   8.49011000
_cell_angle_alpha   112.07500000
_cell_angle_beta   98.46860000
_cell_angle_gamma   113.93000000
_symmetry_Int_Tables_number   1
_chemical_formula_structural   GdH6(CO2)4
_chemical_formula_sum   'Gd2 H12 C8 O16'
_cell_volume   390.51654985
_cell_formula_units_Z   2
loop_
 _symmetry_equiv_pos_site_id
 _symmetry_equiv_pos_as_xyz
  1  'x, y, z'
loop_
 _atom_site_type_symbol
 _atom_site_label
 _atom_site_symmetry_multiplicity
 _atom_site_fract_x
 _atom_site_fract_y
 _atom_site_fract_z
 _atom_site_occupancy
  Gd  Gd0  1  0.66373000  0.85077000  0.38312000  1.0
  Gd  Gd1  1  0.33627000  0.14923000  0.61688000  1.0
  H  H2  1  0.17128000  0.97188000  0.05768000  1.0
  H  H3  1  0.82873000  0.02812000  0.94233000  1.0
  H  H4  1  0.01566000  0.69250000  0.94025000  1.0
  H  H5  1  0.98434000  0.30751000  0.05975000  1.0
  H  H6  1  0.78807000  0.28997000  0.47155000  1.0
  H  H7  1  0.21193000  0.71003000  0.52845000  1.0
  H  H8  1  0.97336000  0.25482000  0.41180000  1.0
  H  H9  1  0.02664000  0.74518000  0.58820000  1.0
  H  H10  1  0.42347000  0.38474000  0.10290000  1.0
  H  H11  1  0.57653000  0.61526000  0.89710000  1.0
  H  H12  1  0.65038000  0.44457000  0.11077000  1.0
  H  H13  1  0.34961000  0.55543000  0.88923000  1.0
  C  C14  1  0.10450000  0.83037000  0.07672000  1.0
  C  C15  1  0.89551000  0.16964000  0.92328000  1.0
  C  C16  1  0.61581000  0.52792000  0.54160000  1.0
  C  C17  1  0.38419000  0.47210000  0.45839000  1.0
  C  C18  1  0.28536000  0.82457000  0.17742000  1.0
  C  C19  1  0.71465000  0.17543000  0.82258000  1.0
  C  C20  1  0.95159000  0.84545000  0.17494000  1.0
  C  C21  1  0.04841000  0.15455000  0.82506000  1.0
  O  O22  1  0.64248000  0.40141000  0.58721000  1.0
  O  O23  1  0.35752000  0.59858000  0.41279000  1.0
  O  O24  1  0.39032000  0.96082000  0.34596000  1.0
  O  O25  1  0.60968000  0.03918000  0.65404000  1.0
  O  O26  1  0.76228000  0.69737000  0.55910000  1.0
  O  O27  1  0.23770000  0.30262000  0.44089000  1.0
  O  O28  1  0.77868000  0.82130000  0.09204000  1.0
  O  O29  1  0.22132000  0.17870000  0.90796000  1.0
  O  O30  1  0.57198000  0.48610000  0.18859000  1.0
  O  O31  1  0.42802000  0.51390000  0.81140000  1.0
  O  O32  1  0.81822000  0.18867000  0.38522000  1.0
  O  O33  1  0.18178000  0.81133000  0.61478000  1.0
  O  O34  1  0.99439000  0.87971000  0.33993000  1.0
  O  O35  1  0.00561000  0.12030000  0.66007000  1.0
  O  O36  1  0.33911000  0.69008000  0.09962000  1.0
  O  O37  1  0.66089000  0.30992000  0.90038000  1.0
