# generated using pymatgen
data_CdH26C38(NO2)2
_symmetry_space_group_name_H-M   'P 1'
_cell_length_a   10.15670000
_cell_length_b   11.72570000
_cell_length_c   14.16420000
_cell_angle_alpha   98.15190000
_cell_angle_beta   102.72200000
_cell_angle_gamma   109.11800000
_symmetry_Int_Tables_number   1
_chemical_formula_structural   CdH26C38(NO2)2
_chemical_formula_sum   'Cd2 H52 C76 N4 O8'
_cell_volume   1512.25100088
_cell_formula_units_Z   2
loop_
 _symmetry_equiv_pos_site_id
 _symmetry_equiv_pos_as_xyz
  1  'x, y, z'
loop_
 _atom_site_type_symbol
 _atom_site_label
 _atom_site_symmetry_multiplicity
 _atom_site_fract_x
 _atom_site_fract_y
 _atom_site_fract_z
 _atom_site_occupancy
  Cd  Cd0  1  0.26823000  0.93078000  0.90039000  1.0
  Cd  Cd1  1  0.73177000  0.06922000  0.09961000  1.0
  H  H2  1  0.08835000  0.31351000  0.96054000  1.0
  H  H3  1  0.91164000  0.68648000  0.03946000  1.0
  H  H4  1  0.43441000  0.37728000  0.81802000  1.0
  H  H5  1  0.56558000  0.62272000  0.18199000  1.0
  H  H6  1  0.46161000  0.88960000  0.64516000  1.0
  H  H7  1  0.53840000  0.11040000  0.35484000  1.0
  H  H8  1  0.42787000  0.16550000  0.83052000  1.0
  H  H9  1  0.57213000  0.83450000  0.16948000  1.0
  H  H10  1  0.81067000  0.95815000  0.90632000  1.0
  H  H11  1  0.18933000  0.04185000  0.09368000  1.0
  H  H12  1  0.02845000  0.43923000  0.85417000  1.0
  H  H13  1  0.97154000  0.56077000  0.14583000  1.0
  H  H14  1  0.09857000  0.10738000  0.96832000  1.0
  H  H15  1  0.90143000  0.89261000  0.03169000  1.0
  H  H16  1  0.83111000  0.79203000  0.62278000  1.0
  H  H17  1  0.16889000  0.20796000  0.37722000  1.0
  H  H18  1  0.04463000  0.65795000  0.86295000  1.0
  H  H19  1  0.95537000  0.34204000  0.13704000  1.0
  H  H20  1  0.49272000  0.78975000  0.92741000  1.0
  H  H21  1  0.50728000  0.21025000  0.07260000  1.0
  H  H22  1  0.72089000  0.65179000  0.43796000  1.0
  H  H23  1  0.27911000  0.34822000  0.56204000  1.0
  H  H24  1  0.49785000  0.57763000  0.91960000  1.0
  H  H25  1  0.50215000  0.42237000  0.08041000  1.0
  H  H26  1  0.40117000  0.84987000  0.32278000  1.0
  H  H27  1  0.59884000  0.15013000  0.67722000  1.0
  H  H28  1  0.67559000  0.00615000  0.45651000  1.0
  H  H29  1  0.32442000  0.99386000  0.54350000  1.0
  H  H30  1  0.18488000  0.75704000  0.44569000  1.0
  H  H31  1  0.81512000  0.24297000  0.55430000  1.0
  H  H32  1  0.44052000  0.57863000  0.60539000  1.0
  H  H33  1  0.55948000  0.42136000  0.39460000  1.0
  H  H34  1  0.86500000  0.07270000  0.36886000  1.0
  H  H35  1  0.13501000  0.92731000  0.63115000  1.0
  H  H36  1  0.91670000  0.72120000  0.35698000  1.0
  H  H37  1  0.08331000  0.27880000  0.64301000  1.0
  H  H38  1  0.33103000  0.47850000  0.36058000  1.0
  H  H39  1  0.66897000  0.52151000  0.63941000  1.0
  H  H40  1  0.25649000  0.50993000  0.69589000  1.0
  H  H41  1  0.74351000  0.49007000  0.30410000  1.0
  H  H42  1  0.99075000  0.93348000  0.32326000  1.0
  H  H43  1  0.00925000  0.06652000  0.67675000  1.0
  H  H44  1  0.29022000  0.76759000  0.14025000  1.0
  H  H45  1  0.70979000  0.23242000  0.85974000  1.0
  H  H46  1  0.00602000  0.69558000  0.54119000  1.0
  H  H47  1  0.99398000  0.30443000  0.45880000  1.0
  H  H48  1  0.23012000  0.39633000  0.17794000  1.0
  H  H49  1  0.76987000  0.60367000  0.82206000  1.0
  H  H50  1  0.03923000  0.57023000  0.66525000  1.0
  H  H51  1  0.96078000  0.42978000  0.33474000  1.0
  H  H52  1  0.20610000  0.54127000  0.06715000  1.0
  H  H53  1  0.79389000  0.45872000  0.93285000  1.0
  C  C54  1  0.26214000  0.36446000  0.88931000  1.0
  C  C55  1  0.73786000  0.63554000  0.11069000  1.0
  C  C56  1  0.16556000  0.28519000  0.93020000  1.0
  C  C57  1  0.83444000  0.71481000  0.06980000  1.0
  C  C58  1  0.97517000  0.86223000  0.81637000  1.0
  C  C59  1  0.02484000  0.13777000  0.18363000  1.0
  C  C60  1  0.62863000  0.92929000  0.78090000  1.0
  C  C61  1  0.37137000  0.07071000  0.21910000  1.0
  C  C62  1  0.54761000  0.97816000  0.84244000  1.0
  C  C63  1  0.45240000  0.02183000  0.15756000  1.0
  C  C64  1  0.35910000  0.32150000  0.85288000  1.0
  C  C65  1  0.64090000  0.67850000  0.14713000  1.0
  C  C66  1  0.26328000  0.49014000  0.88778000  1.0
  C  C67  1  0.73672000  0.50985000  0.11222000  1.0
  C  C68  1  0.56648000  0.88454000  0.67799000  1.0
  C  C69  1  0.43352000  0.11546000  0.32201000  1.0
  C  C70  1  0.35662000  0.20378000  0.85953000  1.0
  C  C71  1  0.64338000  0.79622000  0.14047000  1.0
  C  C72  1  0.83111000  0.86839000  0.76923000  1.0
  C  C73  1  0.16889000  0.13160000  0.23077000  1.0
  C  C74  1  0.76113000  0.92144000  0.82661000  1.0
  C  C75  1  0.23887000  0.07856000  0.17339000  1.0
  C  C76  1  0.63710000  0.83392000  0.61894000  1.0
  C  C77  1  0.36290000  0.16608000  0.38106000  1.0
  C  C78  1  0.13429000  0.51395000  0.87145000  1.0
  C  C79  1  0.86570000  0.48605000  0.12855000  1.0
  C  C80  1  0.43403000  0.71517000  0.46399000  1.0
  C  C81  1  0.56596000  0.28483000  0.53600000  1.0
  C  C82  1  0.57580000  0.78745000  0.50924000  1.0
  C  C83  1  0.42420000  0.21255000  0.49076000  1.0
  C  C84  1  0.32539000  0.67253000  0.51936000  1.0
  C  C85  1  0.67461000  0.32747000  0.48064000  1.0
  C  C86  1  0.17117000  0.16935000  0.93530000  1.0
  C  C87  1  0.82883000  0.83064000  0.06470000  1.0
  C  C88  1  0.77090000  0.82805000  0.66596000  1.0
  C  C89  1  0.22910000  0.17194000  0.33404000  1.0
  C  C90  1  0.14205000  0.63527000  0.87608000  1.0
  C  C91  1  0.85795000  0.36472000  0.12391000  1.0
  C  C92  1  0.37501000  0.66996000  0.35389000  1.0
  C  C93  1  0.62499000  0.33005000  0.64610000  1.0
  C  C94  1  0.39239000  0.70919000  0.91065000  1.0
  C  C95  1  0.60761000  0.29081000  0.08935000  1.0
  C  C96  1  0.68466000  0.82421000  0.45253000  1.0
  C  C97  1  0.31534000  0.17579000  0.54747000  1.0
  C  C98  1  0.75301000  0.74447000  0.42344000  1.0
  C  C99  1  0.24699000  0.25553000  0.57656000  1.0
  C  C100  1  0.39450000  0.59071000  0.90618000  1.0
  C  C101  1  0.60550000  0.40929000  0.09382000  1.0
  C  C102  1  0.36270000  0.75051000  0.29095000  1.0
  C  C103  1  0.63729000  0.24950000  0.70905000  1.0
  C  C104  1  0.72783000  0.94327000  0.43377000  1.0
  C  C105  1  0.27217000  0.05673000  0.56624000  1.0
  C  C106  1  0.20088000  0.70325000  0.50109000  1.0
  C  C107  1  0.79911000  0.29675000  0.49890000  1.0
  C  C108  1  0.34402000  0.60269000  0.59026000  1.0
  C  C109  1  0.65598000  0.39732000  0.40975000  1.0
  C  C110  1  0.83574000  0.98171000  0.38618000  1.0
  C  C111  1  0.16428000  0.01830000  0.61383000  1.0
  C  C112  1  0.86352000  0.78400000  0.37795000  1.0
  C  C113  1  0.13648000  0.21600000  0.62205000  1.0
  C  C114  1  0.32403000  0.54194000  0.31193000  1.0
  C  C115  1  0.67597000  0.45807000  0.68807000  1.0
  C  C116  1  0.24103000  0.56537000  0.64189000  1.0
  C  C117  1  0.75897000  0.43463000  0.35811000  1.0
  C  C118  1  0.90515000  0.90250000  0.35927000  1.0
  C  C119  1  0.09486000  0.09751000  0.64074000  1.0
  C  C120  1  0.30045000  0.70411000  0.18833000  1.0
  C  C121  1  0.69955000  0.29590000  0.81167000  1.0
  C  C122  1  0.10019000  0.66859000  0.55456000  1.0
  C  C123  1  0.89981000  0.33141000  0.44544000  1.0
  C  C124  1  0.26574000  0.49572000  0.20926000  1.0
  C  C125  1  0.73426000  0.50428000  0.79073000  1.0
  C  C126  1  0.11954000  0.59885000  0.62482000  1.0
  C  C127  1  0.88047000  0.40115000  0.37518000  1.0
  C  C128  1  0.25296000  0.57687000  0.14732000  1.0
  C  C129  1  0.74704000  0.42313000  0.85267000  1.0
  N  N130  1  0.26883000  0.73130000  0.89662000  1.0
  N  N131  1  0.73117000  0.26870000  0.10338000  1.0
  N  N132  1  0.26609000  0.12980000  0.90115000  1.0
  N  N133  1  0.73391000  0.87020000  0.09885000  1.0
  O  O134  1  0.02019000  0.88385000  0.91160000  1.0
  O  O135  1  0.97982000  0.11615000  0.08840000  1.0
  O  O136  1  0.41517000  0.95777000  0.79888000  1.0
  O  O137  1  0.58484000  0.04223000  0.20113000  1.0
  O  O138  1  0.05047000  0.84099000  0.76015000  1.0
  O  O139  1  0.94953000  0.15901000  0.23985000  1.0
  O  O140  1  0.61061000  0.03400000  0.93324000  1.0
  O  O141  1  0.38939000  0.96599000  0.06676000  1.0
