# generated using pymatgen
data_CoHC5O4
_symmetry_space_group_name_H-M   'P 1'
_cell_length_a   6.89925000
_cell_length_b   14.92840000
_cell_length_c   14.92810000
_cell_angle_alpha   117.78100000
_cell_angle_beta   98.95510000
_cell_angle_gamma   98.42810000
_symmetry_Int_Tables_number   1
_chemical_formula_structural   CoHC5O4
_chemical_formula_sum   'Co6 H6 C30 O24'
_cell_volume   1300.79403180
_cell_formula_units_Z   6
loop_
 _symmetry_equiv_pos_site_id
 _symmetry_equiv_pos_as_xyz
  1  'x, y, z'
loop_
 _atom_site_type_symbol
 _atom_site_label
 _atom_site_symmetry_multiplicity
 _atom_site_fract_x
 _atom_site_fract_y
 _atom_site_fract_z
 _atom_site_occupancy
  Co  Co0  1  0.88083000  0.68684000  0.42900000  1.0
  Co  Co1  1  0.19651000  0.74264000  0.31440000  1.0
  Co  Co2  1  0.45718000  0.57124000  0.25777000  1.0
  Co  Co3  1  0.12618000  0.31401000  0.58419000  1.0
  Co  Co4  1  0.80381000  0.26660000  0.68290000  1.0
  Co  Co5  1  0.54684000  0.42791000  0.74094000  1.0
  H  H6  1  0.63309000  0.44372000  0.97577000  1.0
  H  H7  1  0.17943000  0.52686000  0.55035000  1.0
  H  H8  1  0.65141000  0.02475000  0.46956000  1.0
  H  H9  1  0.36989000  0.55281000  0.02104000  1.0
  H  H10  1  0.81758000  0.46777000  0.44874000  1.0
  H  H11  1  0.34509000  0.97787000  0.52951000  1.0
  C  C12  1  0.92014000  0.53459000  0.08724000  1.0
  C  C13  1  0.38146000  0.55011000  0.46296000  1.0
  C  C14  1  0.82911000  0.91280000  0.44798000  1.0
  C  C15  1  0.08230000  0.46429000  0.90934000  1.0
  C  C16  1  0.61274000  0.44197000  0.53390000  1.0
  C  C17  1  0.16724000  0.08966000  0.55371000  1.0
  C  C18  1  0.79524000  0.46870000  0.98612000  1.0
  C  C19  1  0.31838000  0.51294000  0.52657000  1.0
  C  C20  1  0.80367000  0.01403000  0.48353000  1.0
  C  C21  1  0.20765000  0.52852000  0.01062000  1.0
  C  C22  1  0.67665000  0.47990000  0.47099000  1.0
  C  C23  1  0.19255000  0.98849000  0.51666000  1.0
  C  C24  1  0.13278000  0.56532000  0.10007000  1.0
  C  C25  1  0.56545000  0.53254000  0.43364000  1.0
  C  C26  1  0.02952000  0.89957000  0.46527000  1.0
  C  C27  1  0.87045000  0.43266000  0.89699000  1.0
  C  C28  1  0.42845000  0.45961000  0.56289000  1.0
  C  C29  1  0.96704000  0.10265000  0.53572000  1.0
  C  C30  1  0.82525000  0.56378000  0.17706000  1.0
  C  C31  1  0.25906000  0.61250000  0.43512000  1.0
  C  C32  1  0.64574000  0.82315000  0.38737000  1.0
  C  C33  1  0.18165000  0.43731000  0.82139000  1.0
  C  C34  1  0.74295000  0.38339000  0.56414000  1.0
  C  C35  1  0.35475000  0.17709000  0.61401000  1.0
  C  C36  1  0.85167000  0.76001000  0.56402000  1.0
  C  C37  1  0.09299000  0.80440000  0.24097000  1.0
  C  C38  1  0.29194000  0.43654000  0.19597000  1.0
  C  C39  1  0.15105000  0.24513000  0.45609000  1.0
  C  C40  1  0.89952000  0.20677000  0.75051000  1.0
  C  C41  1  0.70846000  0.56080000  0.79992000  1.0
  O  O42  1  0.94049000  0.61814000  0.27038000  1.0
  O  O43  1  0.32336000  0.65304000  0.38262000  1.0
  O  O44  1  0.66971000  0.72989000  0.34842000  1.0
  O  O45  1  0.06638000  0.38748000  0.72655000  1.0
  O  O46  1  0.67563000  0.33951000  0.61444000  1.0
  O  O47  1  0.33422000  0.27150000  0.66185000  1.0
  O  O48  1  0.26711000  0.62800000  0.19350000  1.0
  O  O49  1  0.63939000  0.56377000  0.37203000  1.0
  O  O50  1  0.07329000  0.80636000  0.43504000  1.0
  O  O51  1  0.73290000  0.36996000  0.80332000  1.0
  O  O52  1  0.35632000  0.43063000  0.62749000  1.0
  O  O53  1  0.92069000  0.19657000  0.56356000  1.0
  O  O54  1  0.63416000  0.53046000  0.15644000  1.0
  O  O55  1  0.10005000  0.62471000  0.46769000  1.0
  O  O56  1  0.47414000  0.84343000  0.37446000  1.0
  O  O57  1  0.37232000  0.46648000  0.84372000  1.0
  O  O58  1  0.90829000  0.37903000  0.53821000  1.0
  O  O59  1  0.52472000  0.15491000  0.61781000  1.0
  O  O60  1  0.83623000  0.80568000  0.64876000  1.0
  O  O61  1  0.03015000  0.84265000  0.19484000  1.0
  O  O62  1  0.19148000  0.35257000  0.15809000  1.0
  O  O63  1  0.16524000  0.20096000  0.37087000  1.0
  O  O64  1  0.96118000  0.16679000  0.79521000  1.0
  O  O65  1  0.80887000  0.64520000  0.83976000  1.0
