# generated using pymatgen
data_AlH11C14O5
_symmetry_space_group_name_H-M   'P 1'
_cell_length_a   6.59165000
_cell_length_b   14.94470000
_cell_length_c   15.31360000
_cell_angle_alpha   90.02060000
_cell_angle_beta   90.40640000
_cell_angle_gamma   89.91890000
_symmetry_Int_Tables_number   1
_chemical_formula_structural   AlH11C14O5
_chemical_formula_sum   'Al4 H44 C56 O20'
_cell_volume   1508.50673369
_cell_formula_units_Z   4
loop_
 _symmetry_equiv_pos_site_id
 _symmetry_equiv_pos_as_xyz
  1  'x, y, z'
loop_
 _atom_site_type_symbol
 _atom_site_label
 _atom_site_symmetry_multiplicity
 _atom_site_fract_x
 _atom_site_fract_y
 _atom_site_fract_z
 _atom_site_occupancy
  Al  Al0  1  0.99838000  0.99725000  0.49434000  1.0
  Al  Al1  1  0.49746000  0.99889000  0.50764000  1.0
  Al  Al2  1  0.99803000  0.49816000  0.99378000  1.0
  Al  Al3  1  0.49691000  0.49798000  0.00792000  1.0
  H  H4  1  0.25407000  0.10670000  0.46063000  1.0
  H  H5  1  0.73540000  0.89187000  0.45752000  1.0
  H  H6  1  0.25678000  0.38950000  0.96026000  1.0
  H  H7  1  0.73896000  0.60976000  0.96860000  1.0
  H  H8  1  0.07132000  0.43428000  0.20901000  1.0
  H  H9  1  0.29190000  0.44644000  0.33821000  1.0
  H  H10  1  0.99429000  0.22141000  0.45543000  1.0
  H  H11  1  0.24689000  0.34105000  0.46375000  1.0
  H  H12  1  0.57676000  0.57091000  0.80619000  1.0
  H  H13  1  0.84068000  0.57207000  0.69463000  1.0
  H  H14  1  0.55298000  0.79531000  0.56791000  1.0
  H  H15  1  0.82663000  0.68438000  0.57375000  1.0
  H  H16  1  0.90475000  0.57136000  0.19393000  1.0
  H  H17  1  0.65056000  0.56933000  0.30955000  1.0
  H  H18  1  0.96383000  0.78108000  0.44402000  1.0
  H  H19  1  0.68351000  0.67311000  0.43715000  1.0
  H  H20  1  0.99493000  0.27627000  0.95452000  1.0
  H  H21  1  0.25976000  0.16142000  0.96036000  1.0
  H  H22  1  0.08944000  0.06911000  0.70447000  1.0
  H  H23  1  0.31620000  0.06033000  0.83201000  1.0
  H  H24  1  0.45186000  0.07272000  0.18161000  1.0
  H  H25  1  0.42363000  0.07059000  0.29680000  1.0
  H  H26  1  0.28537000  0.14834000  0.23306000  1.0
  H  H27  1  0.32229000  0.26304000  0.11590000  1.0
  H  H28  1  0.52991000  0.27341000  0.04431000  1.0
  H  H29  1  0.46026000  0.16664000  0.08419000  1.0
  H  H30  1  0.94940000  0.93181000  0.81014000  1.0
  H  H31  1  0.91441000  0.92438000  0.69518000  1.0
  H  H32  1  0.78206000  0.85153000  0.76484000  1.0
  H  H33  1  0.80528000  0.74066000  0.87461000  1.0
  H  H34  1  0.00367000  0.72439000  0.95240000  1.0
  H  H35  1  0.94489000  0.83314000  0.91388000  1.0
  H  H36  1  0.55323000  0.91952000  0.18685000  1.0
  H  H37  1  0.56400000  0.92641000  0.30237000  1.0
  H  H38  1  0.71247000  0.84658000  0.24655000  1.0
  H  H39  1  0.68839000  0.73293000  0.12913000  1.0
  H  H40  1  0.49126000  0.71645000  0.05184000  1.0
  H  H41  1  0.54946000  0.82572000  0.08895000  1.0
  H  H42  1  0.46956000  0.33232000  0.58151000  1.0
  H  H43  1  0.53424000  0.22446000  0.54238000  1.0
  H  H44  1  0.32724000  0.23756000  0.61394000  1.0
  H  H45  1  0.29727000  0.35721000  0.72199000  1.0
  H  H46  1  0.42993000  0.42834000  0.79453000  1.0
  H  H47  1  0.47940000  0.43275000  0.68096000  1.0
  C  C48  1  0.75907000  0.10975000  0.61604000  1.0
  C  C49  1  0.74095000  0.11305000  0.38533000  1.0
  C  C50  1  0.24760000  0.88226000  0.38613000  1.0
  C  C51  1  0.24753000  0.88813000  0.61756000  1.0
  C  C52  1  0.74185000  0.38426000  0.88440000  1.0
  C  C53  1  0.75720000  0.38673000  0.11626000  1.0
  C  C54  1  0.24435000  0.60893000  0.11628000  1.0
  C  C55  1  0.24778000  0.61434000  0.88730000  1.0
  C  C56  1  0.76061000  0.31492000  0.18439000  1.0
  C  C57  1  0.90144000  0.32005000  0.25593000  1.0
  C  C58  1  0.61511000  0.24748000  0.17946000  1.0
  C  C59  1  0.05272000  0.38763000  0.26260000  1.0
  C  C60  1  0.17709000  0.39404000  0.33499000  1.0
  C  C61  1  0.73692000  0.18568000  0.31787000  1.0
  C  C62  1  0.59966000  0.18277000  0.24808000  1.0
  C  C63  1  0.88560000  0.25554000  0.32495000  1.0
  C  C64  1  0.01168000  0.26643000  0.40015000  1.0
  C  C65  1  0.15333000  0.33406000  0.40520000  1.0
  C  C66  1  0.25517000  0.68672000  0.81991000  1.0
  C  C67  1  0.41011000  0.68492000  0.75461000  1.0
  C  C68  1  0.10691000  0.75322000  0.82065000  1.0
  C  C69  1  0.56929000  0.62039000  0.75447000  1.0
  C  C70  1  0.71751000  0.62081000  0.69151000  1.0
  C  C71  1  0.24513000  0.81700000  0.68672000  1.0
  C  C72  1  0.09755000  0.81792000  0.75168000  1.0
  C  C73  1  0.40456000  0.75106000  0.68657000  1.0
  C  C74  1  0.55579000  0.74688000  0.62067000  1.0
  C  C75  1  0.70959000  0.68432000  0.62364000  1.0
  C  C76  1  0.23703000  0.68145000  0.18355000  1.0
  C  C77  1  0.08257000  0.67995000  0.24911000  1.0
  C  C78  1  0.38674000  0.74721000  0.18285000  1.0
  C  C79  1  0.91938000  0.61758000  0.24821000  1.0
  C  C80  1  0.77605000  0.61668000  0.31319000  1.0
  C  C81  1  0.25136000  0.81040000  0.31773000  1.0
  C  C82  1  0.39614000  0.81211000  0.25166000  1.0
  C  C83  1  0.09374000  0.74400000  0.31888000  1.0
  C  C84  1  0.94976000  0.73724000  0.38759000  1.0
  C  C85  1  0.79369000  0.67589000  0.38447000  1.0
  C  C86  1  0.73967000  0.31227000  0.81630000  1.0
  C  C87  1  0.88939000  0.24275000  0.82341000  1.0
  C  C88  1  0.60584000  0.31642000  0.74548000  1.0
  C  C89  1  0.01614000  0.23251000  0.89850000  1.0
  C  C90  1  0.16458000  0.16753000  0.90218000  1.0
  C  C91  1  0.76484000  0.18287000  0.68292000  1.0
  C  C92  1  0.62038000  0.25096000  0.67743000  1.0
  C  C93  1  0.90818000  0.17898000  0.75383000  1.0
  C  C94  1  0.06667000  0.11430000  0.75900000  1.0
  C  C95  1  0.19396000  0.10960000  0.83066000  1.0
  C  C96  1  0.43286000  0.11438000  0.24018000  1.0
  C  C97  1  0.47542000  0.23756000  0.10169000  1.0
  C  C98  1  0.92799000  0.88543000  0.75499000  1.0
  C  C99  1  0.95825000  0.76262000  0.89460000  1.0
  C  C100  1  0.56385000  0.88024000  0.24739000  1.0
  C  C101  1  0.53598000  0.75551000  0.10911000  1.0
  C  C102  1  0.48143000  0.26138000  0.59945000  1.0
  C  C103  1  0.44567000  0.38778000  0.73587000  1.0
  O  O104  1  0.92466000  0.08233000  0.58272000  1.0
  O  O105  1  0.57425000  0.08872000  0.42001000  1.0
  O  O106  1  0.41238000  0.90287000  0.42570000  1.0
  O  O107  1  0.08338000  0.90714000  0.57702000  1.0
  O  O108  1  0.07615000  0.91870000  0.40067000  1.0
  O  O109  1  0.41697000  0.92560000  0.60268000  1.0
  O  O110  1  0.58505000  0.07897000  0.59642000  1.0
  O  O111  1  0.91415000  0.08006000  0.40415000  1.0
  O  O112  1  0.24826000  0.05309000  0.49631000  1.0
  O  O113  1  0.74604000  0.94283000  0.49671000  1.0
  O  O114  1  0.91464000  0.41776000  0.90273000  1.0
  O  O115  1  0.58397000  0.41895000  0.09728000  1.0
  O  O116  1  0.41587000  0.57290000  0.10233000  1.0
  O  O117  1  0.07577000  0.57847000  0.90102000  1.0
  O  O118  1  0.08069000  0.58709000  0.07690000  1.0
  O  O119  1  0.41223000  0.59286000  0.92684000  1.0
  O  O120  1  0.57557000  0.40749000  0.92014000  1.0
  O  O121  1  0.92304000  0.41146000  0.08136000  1.0
  O  O122  1  0.24869000  0.44289000  0.99621000  1.0
  O  O123  1  0.74618000  0.55246000  0.99817000  1.0
