# generated using pymatgen
data_CoH14C20N2O5
_symmetry_space_group_name_H-M   'P 1'
_cell_length_a   8.97212000
_cell_length_b   10.14010000
_cell_length_c   11.28820000
_cell_angle_alpha   111.95500000
_cell_angle_beta   95.24640000
_cell_angle_gamma   114.82100000
_symmetry_Int_Tables_number   1
_chemical_formula_structural   CoH14C20N2O5
_chemical_formula_sum   'Co2 H28 C40 N4 O10'
_cell_volume   826.02161272
_cell_formula_units_Z   2
loop_
 _symmetry_equiv_pos_site_id
 _symmetry_equiv_pos_as_xyz
  1  'x, y, z'
loop_
 _atom_site_type_symbol
 _atom_site_label
 _atom_site_symmetry_multiplicity
 _atom_site_fract_x
 _atom_site_fract_y
 _atom_site_fract_z
 _atom_site_occupancy
  Co  Co0  1  0.45938000  0.83874000  0.69129000  1.0
  Co  Co1  1  0.54065000  0.16134000  0.30872000  1.0
  H  H2  1  0.37971000  0.80934000  0.40694000  1.0
  H  H3  1  0.62023000  0.19058000  0.59300000  1.0
  H  H4  1  0.45815000  0.67950000  0.20577000  1.0
  H  H5  1  0.54191000  0.32052000  0.79421000  1.0
  H  H6  1  0.64898000  0.56066000  0.22008000  1.0
  H  H7  1  0.35104000  0.43934000  0.77991000  1.0
  H  H8  1  0.82876000  0.50591000  0.37350000  1.0
  H  H9  1  0.17121000  0.49405000  0.62646000  1.0
  H  H10  1  0.93967000  0.54608000  0.60024000  1.0
  H  H11  1  0.06028000  0.45388000  0.39972000  1.0
  H  H12  1  0.95353000  0.66504000  0.85206000  1.0
  H  H13  1  0.04640000  0.33485000  0.14784000  1.0
  H  H14  1  0.84550000  0.80944000  0.02706000  1.0
  H  H15  1  0.15440000  0.19033000  0.97288000  1.0
  H  H16  1  0.63042000  0.88040000  0.96275000  1.0
  H  H17  1  0.36959000  0.11952000  0.03725000  1.0
  H  H18  1  0.95523000  0.28448000  0.77905000  1.0
  H  H19  1  0.04487000  0.71564000  0.22102000  1.0
  H  H20  1  0.77801000  0.44386000  0.11753000  1.0
  H  H21  1  0.22210000  0.55626000  0.88255000  1.0
  H  H22  1  0.20205000  0.91103000  0.40954000  1.0
  H  H23  1  0.79795000  0.08905000  0.59055000  1.0
  H  H24  1  0.98095000  0.03826000  0.72738000  1.0
  H  H25  1  0.01904000  0.96181000  0.27270000  1.0
  H  H26  1  0.26697000  0.87086000  0.81219000  1.0
  H  H27  1  0.73303000  0.12911000  0.18781000  1.0
  H  H28  1  0.36248000  0.81326000  0.89964000  1.0
  H  H29  1  0.63753000  0.18673000  0.10033000  1.0
  C  C30  1  0.46137000  0.75573000  0.41136000  1.0
  C  C31  1  0.53863000  0.24425000  0.58860000  1.0
  C  C32  1  0.50675000  0.68228000  0.29907000  1.0
  C  C33  1  0.49325000  0.31769000  0.70089000  1.0
  C  C34  1  0.61336000  0.61699000  0.30721000  1.0
  C  C35  1  0.38662000  0.38297000  0.69277000  1.0
  C  C36  1  0.67661000  0.62611000  0.43082000  1.0
  C  C37  1  0.32331000  0.37380000  0.56914000  1.0
  C  C38  1  0.79072000  0.56791000  0.45660000  1.0
  C  C39  1  0.20921000  0.43202000  0.54335000  1.0
  C  C40  1  0.85153000  0.58939000  0.58215000  1.0
  C  C41  1  0.14841000  0.41056000  0.41780000  1.0
  C  C42  1  0.80128000  0.66795000  0.69268000  1.0
  C  C43  1  0.19868000  0.33200000  0.30727000  1.0
  C  C44  1  0.86096000  0.70032000  0.82603000  1.0
  C  C45  1  0.13901000  0.29961000  0.17391000  1.0
  C  C46  1  0.80115000  0.77877000  0.92236000  1.0
  C  C47  1  0.19877000  0.22108000  0.07758000  1.0
  C  C48  1  0.67953000  0.82138000  0.88748000  1.0
  C  C49  1  0.32041000  0.17850000  0.11248000  1.0
  C  C50  1  0.68266000  0.71833000  0.66666667  1.0
  C  C51  1  0.31728000  0.28161000  0.33327000  1.0
  C  C52  1  0.62389000  0.70098000  0.53844000  1.0
  C  C53  1  0.37606000  0.29897000  0.46153000  1.0
  C  C54  1  0.68748000  0.18266000  0.88241000  1.0
  C  C55  1  0.31260000  0.81742000  0.11759000  1.0
  C  C56  1  0.84877000  0.34675000  0.94162000  1.0
  C  C57  1  0.15132000  0.65339000  0.05843000  1.0
  C  C58  1  0.97503000  0.37906000  0.87581000  1.0
  C  C59  1  0.02508000  0.62107000  0.12426000  1.0
  C  C60  1  0.87577000  0.46987000  0.06631000  1.0
  C  C61  1  0.12433000  0.53026000  0.93376000  1.0
  C  C62  1  0.20611000  0.93704000  0.66103000  1.0
  C  C63  1  0.79387000  0.06300000  0.33904000  1.0
  C  C64  1  0.10179000  0.97027000  0.57710000  1.0
  C  C65  1  0.89817000  0.02976000  0.42297000  1.0
  C  C66  1  0.11189000  0.94773000  0.44861000  1.0
  C  C67  1  0.88810000  0.05234000  0.55148000  1.0
  C  C68  1  0.98932000  0.02306000  0.62791000  1.0
  C  C69  1  0.01067000  0.97702000  0.37218000  1.0
  N  N70  1  0.51760000  0.76440000  0.52975000  1.0
  N  N71  1  0.48241000  0.23562000  0.47023000  1.0
  N  N72  1  0.61861000  0.78959000  0.76116000  1.0
  N  N73  1  0.38136000  0.21038000  0.23883000  1.0
  O  O74  1  0.66028000  0.08173000  0.76239000  1.0
  O  O75  1  0.33982000  0.91841000  0.23760000  1.0
  O  O76  1  0.58787000  0.15363000  0.95298000  1.0
  O  O77  1  0.41222000  0.84638000  0.04702000  1.0
  O  O78  1  0.29887000  0.87801000  0.60524000  1.0
  O  O79  1  0.70119000  0.12213000  0.39480000  1.0
  O  O80  1  0.19493000  0.96503000  0.77793000  1.0
  O  O81  1  0.80504000  0.03494000  0.22213000  1.0
  O  O82  1  0.31839000  0.79510000  0.80565000  1.0
  O  O83  1  0.68163000  0.20488000  0.19431000  1.0
