# generated using pymatgen
data_CdH6C7(NO2)2
_symmetry_space_group_name_H-M   'P 1'
_cell_length_a   7.01464000
_cell_length_b   7.86849000
_cell_length_c   7.86852000
_cell_angle_alpha   73.44330000
_cell_angle_beta   75.09620000
_cell_angle_gamma   75.09530000
_symmetry_Int_Tables_number   1
_chemical_formula_structural   CdH6C7(NO2)2
_chemical_formula_sum   'Cd2 H12 C14 N4 O8'
_cell_volume   394.27894822
_cell_formula_units_Z   2
loop_
 _symmetry_equiv_pos_site_id
 _symmetry_equiv_pos_as_xyz
  1  'x, y, z'
loop_
 _atom_site_type_symbol
 _atom_site_label
 _atom_site_symmetry_multiplicity
 _atom_site_fract_x
 _atom_site_fract_y
 _atom_site_fract_z
 _atom_site_occupancy
  Cd  Cd0  1  0.63628000  0.37710000  0.04194000  1.0
  Cd  Cd1  1  0.13628000  0.04194000  0.37710000  1.0
  H  H2  1  0.70485000  0.13042000  0.45107000  1.0
  H  H3  1  0.20486000  0.45107000  0.13042000  1.0
  H  H4  1  0.74415000  0.06361000  0.66354000  1.0
  H  H5  1  0.24415000  0.66353000  0.06362000  1.0
  H  H6  1  0.66388000  0.36888000  0.64268000  1.0
  H  H7  1  0.16387000  0.64269000  0.36888000  1.0
  H  H8  1  0.71172000  0.88938000  0.28560000  1.0
  H  H9  1  0.21171000  0.28560000  0.88937000  1.0
  H  H10  1  0.74827000  0.76649000  0.84965000  1.0
  H  H11  1  0.24828000  0.84965000  0.76650000  1.0
  H  H12  1  0.46627000  0.94611000  0.00373000  1.0
  H  H13  1  0.96628000  0.00373000  0.94611000  1.0
  C  C14  1  0.67056000  0.55227000  0.29166000  1.0
  C  C15  1  0.17055000  0.29166000  0.55227000  1.0
  C  C16  1  0.68819000  0.62127000  0.44460000  1.0
  C  C17  1  0.18818000  0.44461000  0.62127000  1.0
  C  C18  1  0.68510000  0.50642000  0.61633000  1.0
  C  C19  1  0.18510000  0.61634000  0.50642000  1.0
  C  C20  1  0.71134000  0.79800000  0.41828000  1.0
  C  C21  1  0.21133000  0.41828000  0.79801000  1.0
  C  C22  1  0.73035000  0.73109000  0.73134000  1.0
  C  C23  1  0.23035000  0.73134000  0.73109000  1.0
  C  C24  1  0.73422000  0.85602000  0.56322000  1.0
  C  C25  1  0.23422000  0.56322000  0.85602000  1.0
  C  C26  1  0.51256000  0.06480000  0.01662000  1.0
  C  C27  1  0.01256000  0.01662000  0.06480000  1.0
  N  N28  1  0.77454000  0.02727000  0.54180000  1.0
  N  N29  1  0.27454000  0.54180000  0.02727000  1.0
  N  N30  1  0.70627000  0.56107000  0.75592000  1.0
  N  N31  1  0.20627000  0.75593000  0.56108000  1.0
  O  O32  1  0.70952000  0.64565000  0.13193000  1.0
  O  O33  1  0.20951000  0.13193000  0.64565000  1.0
  O  O34  1  0.61609000  0.39910000  0.33045000  1.0
  O  O35  1  0.11608000  0.33046000  0.39910000  1.0
  O  O36  1  0.63981000  0.13840000  0.88979000  1.0
  O  O37  1  0.13981000  0.88978000  0.13840000  1.0
  O  O38  1  0.43489000  0.12294000  0.16021000  1.0
  O  O39  1  0.93489000  0.16020000  0.12294000  1.0
