# generated using pymatgen
data_ZnH5C16Cl2(O2F)2
_symmetry_space_group_name_H-M   'P 1'
_cell_length_a   8.83038000
_cell_length_b   17.74510000
_cell_length_c   34.87030000
_cell_angle_alpha   89.16360000
_cell_angle_beta   89.80990000
_cell_angle_gamma   89.96580000
_symmetry_Int_Tables_number   1
_chemical_formula_structural   ZnH5C16Cl2(O2F)2
_chemical_formula_sum   'Zn4 H20 C64 Cl8 O16 F8'
_cell_volume   5463.42262147
_cell_formula_units_Z   4
loop_
 _symmetry_equiv_pos_site_id
 _symmetry_equiv_pos_as_xyz
  1  'x, y, z'
loop_
 _atom_site_type_symbol
 _atom_site_label
 _atom_site_symmetry_multiplicity
 _atom_site_fract_x
 _atom_site_fract_y
 _atom_site_fract_z
 _atom_site_occupancy
  Zn  Zn0  1  0.65770000  0.00030000  0.49976000  1.0
  Zn  Zn1  1  0.35567000  0.00036000  0.50011000  1.0
  Zn  Zn2  1  0.24749000  0.00263000  0.00011000  1.0
  Zn  Zn3  1  0.55110000  0.00241000  0.99987000  1.0
  H  H4  1  0.59474000  0.00044000  0.11479000  1.0
  H  H5  1  0.62352000  0.00000000  0.18507000  1.0
  H  H6  1  0.76829000  0.99986000  0.30361000  1.0
  H  H7  1  0.27760000  0.00028000  0.31280000  1.0
  H  H8  1  0.27908000  0.99993000  0.25311000  1.0
  H  H9  1  0.62709000  0.00008000  0.24592000  1.0
  H  H10  1  0.59519000  0.00242000  0.88496000  1.0
  H  H11  1  0.62412000  0.00111000  0.81463000  1.0
  H  H12  1  0.76926000  0.00074000  0.69577000  1.0
  H  H13  1  0.27858000  0.99995000  0.68743000  1.0
  H  H14  1  0.27996000  0.00145000  0.74709000  1.0
  H  H15  1  0.62796000  0.00084000  0.75374000  1.0
  H  H16  1  0.71333000  0.22969000  0.49818000  1.0
  H  H17  1  0.22619000  0.24257000  0.49997000  1.0
  H  H18  1  0.71346000  0.77092000  0.49955000  1.0
  H  H19  1  0.22640000  0.75828000  0.50236000  1.0
  H  H20  1  0.20383000  0.23196000  0.00098000  1.0
  H  H21  1  0.69113000  0.24400000  0.00000000  1.0
  H  H22  1  0.20306000  0.77287000  0.00080000  1.0
  H  H23  1  0.69037000  0.76089000  0.00045000  1.0
  C  C24  1  0.46183000  0.14378000  0.49918000  1.0
  C  C25  1  0.55372000  0.00027000  0.42697000  1.0
  C  C26  1  0.46200000  0.85690000  0.50082000  1.0
  C  C27  1  0.55455000  0.00025000  0.57278000  1.0
  C  C28  1  0.45335000  0.14546000  0.00010000  1.0
  C  C29  1  0.34563000  0.00100000  0.07263000  1.0
  C  C30  1  0.45251000  0.85942000  0.00023000  1.0
  C  C31  1  0.34583000  0.00379000  0.92745000  1.0
  C  C32  1  0.35202000  0.00060000  0.11533000  1.0
  C  C33  1  0.49514000  0.00040000  0.13326000  1.0
  C  C34  1  0.51043000  0.00018000  0.17268000  1.0
  C  C35  1  0.38244000  0.00014000  0.19710000  1.0
  C  C36  1  0.24058000  0.00032000  0.17902000  1.0
  C  C37  1  0.22426000  0.00052000  0.13921000  1.0
  C  C38  1  0.38889000  0.99999000  0.23870000  1.0
  C  C39  1  0.51651000  0.00002000  0.26010000  1.0
  C  C40  1  0.66335000  0.99995000  0.32012000  1.0
  C  C41  1  0.52179000  0.00004000  0.30182000  1.0
  C  C42  1  0.39105000  0.00019000  0.32492000  1.0
  C  C43  1  0.40364000  0.00023000  0.36444000  1.0
  C  C44  1  0.54408000  0.00016000  0.38418000  1.0
  C  C45  1  0.67195000  0.00002000  0.35984000  1.0
  C  C46  1  0.35248000  0.00340000  0.88474000  1.0
  C  C47  1  0.49567000  0.00254000  0.86663000  1.0
  C  C48  1  0.51100000  0.00183000  0.82719000  1.0
  C  C49  1  0.38311000  0.00198000  0.80293000  1.0
  C  C50  1  0.24119000  0.00290000  0.82122000  1.0
  C  C51  1  0.22484000  0.00359000  0.86104000  1.0
  C  C52  1  0.38974000  0.00137000  0.76133000  1.0
  C  C53  1  0.51741000  0.00083000  0.73973000  1.0
  C  C54  1  0.66431000  0.00047000  0.67945000  1.0
  C  C55  1  0.52276000  0.00041000  0.69799000  1.0
  C  C56  1  0.39201000  0.00009000  0.67511000  1.0
  C  C57  1  0.40457000  0.00004000  0.63558000  1.0
  C  C58  1  0.54500000  0.00020000  0.61559000  1.0
  C  C59  1  0.67287000  0.00040000  0.63971000  1.0
  C  C60  1  0.46867000  0.22789000  0.49908000  1.0
  C  C61  1  0.61048000  0.26344000  0.49858000  1.0
  C  C62  1  0.61872000  0.34155000  0.49866000  1.0
  C  C63  1  0.48632000  0.38688000  0.49936000  1.0
  C  C64  1  0.34486000  0.34874000  0.49978000  1.0
  C  C65  1  0.33567000  0.27063000  0.49962000  1.0
  C  C66  1  0.49314000  0.46596000  0.49970000  1.0
  C  C67  1  0.49317000  0.53474000  0.50015000  1.0
  C  C68  1  0.48638000  0.61381000  0.50055000  1.0
  C  C69  1  0.61880000  0.65909000  0.49984000  1.0
  C  C70  1  0.61062000  0.73719000  0.50009000  1.0
  C  C71  1  0.46885000  0.77280000  0.50092000  1.0
  C  C72  1  0.33583000  0.73015000  0.50171000  1.0
  C  C73  1  0.34500000  0.65204000  0.50162000  1.0
  C  C74  1  0.44834000  0.22956000  0.00042000  1.0
  C  C75  1  0.30689000  0.26551000  0.00085000  1.0
  C  C76  1  0.29905000  0.34362000  0.00111000  1.0
  C  C77  1  0.43165000  0.38881000  0.00094000  1.0
  C  C78  1  0.57280000  0.35027000  0.00052000  1.0
  C  C79  1  0.58162000  0.27208000  0.00028000  1.0
  C  C80  1  0.42525000  0.46798000  0.00112000  1.0
  C  C81  1  0.42510000  0.53681000  0.00116000  1.0
  C  C82  1  0.43126000  0.61599000  0.00106000  1.0
  C  C83  1  0.29854000  0.66117000  0.00108000  1.0
  C  C84  1  0.30617000  0.73931000  0.00082000  1.0
  C  C85  1  0.44753000  0.77529000  0.00057000  1.0
  C  C86  1  0.58093000  0.73278000  0.00061000  1.0
  C  C87  1  0.57231000  0.65458000  0.00085000  1.0
  Cl  Cl88  1  0.18075000  0.40085000  0.50066000  1.0
  Cl  Cl89  1  0.79355000  0.38444000  0.49795000  1.0
  Cl  Cl90  1  0.18083000  0.60002000  0.50281000  1.0
  Cl  Cl91  1  0.79355000  0.61611000  0.49855000  1.0
  Cl  Cl92  1  0.73721000  0.40212000  0.00028000  1.0
  Cl  Cl93  1  0.12438000  0.38668000  0.00172000  1.0
  Cl  Cl94  1  0.73689000  0.60279000  0.00087000  1.0
  Cl  Cl95  1  0.12396000  0.61810000  0.00137000  1.0
  O  O96  1  0.58865000  0.10973000  0.49905000  1.0
  O  O97  1  0.33117000  0.11178000  0.49945000  1.0
  O  O98  1  0.42823000  0.00034000  0.44491000  1.0
  O  O99  1  0.68448000  0.00025000  0.44300000  1.0
  O  O100  1  0.33131000  0.88894000  0.50087000  1.0
  O  O101  1  0.58880000  0.89091000  0.50061000  1.0
  O  O102  1  0.68519000  0.00025000  0.55647000  1.0
  O  O103  1  0.42895000  0.00031000  0.55510000  1.0
  O  O104  1  0.32637000  0.11179000  0.00001000  1.0
  O  O105  1  0.58349000  0.11251000  0.99995000  1.0
  O  O106  1  0.47300000  0.00091000  0.05543000  1.0
  O  O107  1  0.21600000  0.00145000  0.05586000  1.0
  O  O108  1  0.58272000  0.89224000  0.00002000  1.0
  O  O109  1  0.32558000  0.89321000  0.00015000  1.0
  O  O110  1  0.21615000  0.00374000  0.94441000  1.0
  O  O111  1  0.47315000  0.00395000  0.94446000  1.0
  F  F112  1  0.08186000  0.00062000  0.12535000  1.0
  F  F113  1  0.11185000  0.00028000  0.20056000  1.0
  F  F114  1  0.27122000  0.00038000  0.38401000  1.0
  F  F115  1  0.81254000  0.99994000  0.37505000  1.0
  F  F116  1  0.08242000  0.00447000  0.87512000  1.0
  F  F117  1  0.11249000  0.00320000  0.79987000  1.0
  F  F118  1  0.27211000  0.99978000  0.61624000  1.0
  F  F119  1  0.81345000  0.00059000  0.62425000  1.0
