# generated using pymatgen
data_CuH6C3SN2Cl
_symmetry_space_group_name_H-M   'P 1'
_cell_length_a   7.45501000
_cell_length_b   11.72800000
_cell_length_c   11.91940000
_cell_angle_alpha   66.11970000
_cell_angle_beta   75.93780000
_cell_angle_gamma   87.38350000
_symmetry_Int_Tables_number   1
_chemical_formula_structural   CuH6C3SN2Cl
_chemical_formula_sum   'Cu6 H36 C18 S6 N12 Cl6'
_cell_volume   922.73630590
_cell_formula_units_Z   6
loop_
 _symmetry_equiv_pos_site_id
 _symmetry_equiv_pos_as_xyz
  1  'x, y, z'
loop_
 _atom_site_type_symbol
 _atom_site_label
 _atom_site_symmetry_multiplicity
 _atom_site_fract_x
 _atom_site_fract_y
 _atom_site_fract_z
 _atom_site_occupancy
  Cu  Cu0  1  0.04269000  0.00746000  0.09769000  1.0
  Cu  Cu1  1  0.95730000  0.99254000  0.90231000  1.0
  Cu  Cu2  1  0.86331000  0.79162000  0.26799000  1.0
  Cu  Cu3  1  0.13669000  0.20838000  0.73201000  1.0
  Cu  Cu4  1  0.04101000  0.38377000  0.95472000  1.0
  Cu  Cu5  1  0.95898000  0.61623000  0.04528000  1.0
  H  H6  1  0.83708000  0.99879000  0.36303000  1.0
  H  H7  1  0.16291000  0.00122000  0.63697000  1.0
  H  H8  1  0.96100000  0.37297000  0.21393000  1.0
  H  H9  1  0.03901000  0.62703000  0.78607000  1.0
  H  H10  1  0.53085000  0.66067000  0.40484000  1.0
  H  H11  1  0.46914000  0.33933000  0.59516000  1.0
  H  H12  1  0.59329000  0.49706000  0.15622000  1.0
  H  H13  1  0.40671000  0.50294000  0.84378000  1.0
  H  H14  1  0.64797000  0.15292000  0.93016000  1.0
  H  H15  1  0.35204000  0.84708000  0.06983000  1.0
  H  H16  1  0.53569000  0.95826000  0.31143000  1.0
  H  H17  1  0.46430000  0.04175000  0.68857000  1.0
  H  H18  1  0.65403000  0.10620000  0.49703000  1.0
  H  H19  1  0.34598000  0.89381000  0.50297000  1.0
  H  H20  1  0.85943000  0.05405000  0.55255000  1.0
  H  H21  1  0.14058000  0.94595000  0.44745000  1.0
  H  H22  1  0.01007000  0.25966000  0.44118000  1.0
  H  H23  1  0.98995000  0.74034000  0.55882000  1.0
  H  H24  1  0.77779000  0.30855000  0.45067000  1.0
  H  H25  1  0.22223000  0.69145000  0.54933000  1.0
  H  H26  1  0.20372000  0.62720000  0.38283000  1.0
  H  H27  1  0.79628000  0.37279000  0.61717000  1.0
  H  H28  1  0.26682000  0.47541000  0.47818000  1.0
  H  H29  1  0.73318000  0.52459000  0.52181000  1.0
  H  H30  1  0.25523000  0.42604000  0.30383000  1.0
  H  H31  1  0.74478000  0.57395000  0.69617000  1.0
  H  H32  1  0.27529000  0.58645000  0.19665000  1.0
  H  H33  1  0.72471000  0.41355000  0.80335000  1.0
  H  H34  1  0.56097000  0.30127000  0.04801000  1.0
  H  H35  1  0.43903000  0.69873000  0.95199000  1.0
  H  H36  1  0.35457000  0.24748000  0.02778000  1.0
  H  H37  1  0.64544000  0.75253000  0.97221000  1.0
  H  H38  1  0.42877000  0.18698000  0.27147000  1.0
  H  H39  1  0.57122000  0.81302000  0.72853000  1.0
  H  H40  1  0.26667000  0.10114000  0.24141000  1.0
  H  H41  1  0.73332000  0.89886000  0.75859000  1.0
  C  C42  1  0.91374000  0.18690000  0.25397000  1.0
  C  C43  1  0.08626000  0.81310000  0.74603000  1.0
  C  C44  1  0.80672000  0.11377000  0.47106000  1.0
  C  C45  1  0.19329000  0.88623000  0.52894000  1.0
  C  C46  1  0.87856000  0.25105000  0.41773000  1.0
  C  C47  1  0.12145000  0.74895000  0.58228000  1.0
  C  C48  1  0.61504000  0.57437000  0.28083000  1.0
  C  C49  1  0.38495000  0.42563000  0.71917000  1.0
  C  C50  1  0.30503000  0.55598000  0.38605000  1.0
  C  C51  1  0.69497000  0.44402000  0.61395000  1.0
  C  C52  1  0.32622000  0.51676000  0.27512000  1.0
  C  C53  1  0.67378000  0.48323000  0.72488000  1.0
  C  C54  1  0.61811000  0.03201000  0.11691000  1.0
  C  C55  1  0.38189000  0.96799000  0.88307000  1.0
  C  C56  1  0.47349000  0.21831000  0.06987000  1.0
  C  C57  1  0.52652000  0.78170000  0.93013000  1.0
  C  C58  1  0.41160000  0.13716000  0.21385000  1.0
  C  C59  1  0.58839000  0.86284000  0.78615000  1.0
  S  S60  1  0.96063000  0.19137000  0.10552000  1.0
  S  S61  1  0.03937000  0.80863000  0.89449000  1.0
  S  S62  1  0.85047000  0.60599000  0.24287000  1.0
  S  S63  1  0.14953000  0.39401000  0.75713000  1.0
  S  S64  1  0.75114000  0.91485000  0.09691000  1.0
  S  S65  1  0.24886000  0.08515000  0.90309000  1.0
  N  N66  1  0.87737000  0.08172000  0.36175000  1.0
  N  N67  1  0.12263000  0.91828000  0.63825000  1.0
  N  N68  1  0.90594000  0.28759000  0.28137000  1.0
  N  N69  1  0.09407000  0.71241000  0.71863000  1.0
  N  N70  1  0.49249000  0.60739000  0.36341000  1.0
  N  N71  1  0.50750000  0.39261000  0.63659000  1.0
  N  N72  1  0.52784000  0.51087000  0.23577000  1.0
  N  N73  1  0.47216000  0.48913000  0.76423000  1.0
  N  N74  1  0.58156000  0.13234000  0.02274000  1.0
  N  N75  1  0.41844000  0.86765000  0.97728000  1.0
  N  N76  1  0.53501000  0.03359000  0.22904000  1.0
  N  N77  1  0.46498000  0.96640000  0.77097000  1.0
  Cl  Cl78  1  0.16921000  0.85330000  0.24832000  1.0
  Cl  Cl79  1  0.83078000  0.14670000  0.75168000  1.0
  Cl  Cl80  1  0.67468000  0.79676000  0.45481000  1.0
  Cl  Cl81  1  0.32532000  0.20324000  0.54519000  1.0
  Cl  Cl82  1  0.77685000  0.50876000  0.97471000  1.0
  Cl  Cl83  1  0.22315000  0.49124000  0.02529000  1.0
