# generated using pymatgen
data_CuH3C4N2O
_symmetry_space_group_name_H-M   'P 1'
_cell_length_a   9.60396000
_cell_length_b   15.92652821
_cell_length_c   15.93560000
_cell_angle_alpha   116.03914815
_cell_angle_beta   101.61800000
_cell_angle_gamma   101.59208700
_symmetry_Int_Tables_number   1
_chemical_formula_structural   CuH3C4N2O
_chemical_formula_sum   'Cu12 H36 C48 N24 O12'
_cell_volume   2025.93353859
_cell_formula_units_Z   12
loop_
 _symmetry_equiv_pos_site_id
 _symmetry_equiv_pos_as_xyz
  1  'x, y, z'
loop_
 _atom_site_type_symbol
 _atom_site_label
 _atom_site_symmetry_multiplicity
 _atom_site_fract_x
 _atom_site_fract_y
 _atom_site_fract_z
 _atom_site_occupancy
  Cu  Cu0  1  0.67577000  0.36786000  0.03586000  1.0
  Cu  Cu1  1  0.38881000  0.32205000  0.01665000  1.0
  Cu  Cu2  1  0.30751000  0.66827000  0.63241000  1.0
  Cu  Cu3  1  0.06610000  0.69467000  0.67771000  1.0
  Cu  Cu4  1  0.64003000  0.96408000  0.33210000  1.0
  Cu  Cu5  1  0.37244000  0.98320000  0.30549000  1.0
  Cu  Cu6  1  0.32421000  0.63213000  0.96413000  1.0
  Cu  Cu7  1  0.61118000  0.67795000  0.98334000  1.0
  Cu  Cu8  1  0.69249000  0.33174000  0.36759000  1.0
  Cu  Cu9  1  0.93390000  0.30533000  0.32228000  1.0
  Cu  Cu10  1  0.35998000  0.03592000  0.66791000  1.0
  Cu  Cu11  1  0.62758000  0.01680000  0.69452000  1.0
  H  H12  1  0.28685000  0.48342000  0.76507000  1.0
  H  H13  1  0.27473000  0.30436000  0.68449000  1.0
  H  H14  1  0.32357000  0.23352000  0.79753000  1.0
  H  H15  1  0.18389000  0.09883000  0.13324000  1.0
  H  H16  1  0.18135000  0.18113000  0.02873000  1.0
  H  H17  1  0.41861000  0.16751000  0.28026000  1.0
  H  H18  1  0.80435000  0.28163000  0.51641000  1.0
  H  H19  1  0.97051000  0.38026000  0.69560000  1.0
  H  H20  1  0.08926000  0.56421000  0.76635000  1.0
  H  H21  1  0.08616000  0.03455000  0.90172000  1.0
  H  H22  1  0.00104000  0.84771000  0.81935000  1.0
  H  H23  1  0.25086000  0.11284000  0.83239000  1.0
  H  H24  1  0.52160000  0.23494000  0.71810000  1.0
  H  H25  1  0.59040000  0.31559000  0.61974000  1.0
  H  H26  1  0.52660000  0.20242000  0.43601000  1.0
  H  H27  1  0.05161000  0.86756000  0.96599000  1.0
  H  H28  1  0.15387000  0.97188000  0.15273000  1.0
  H  H29  1  0.13772000  0.71981000  0.88759000  1.0
  H  H30  1  0.71314000  0.51658000  0.23494000  1.0
  H  H31  1  0.72528000  0.69565000  0.31552000  1.0
  H  H32  1  0.67643000  0.76648000  0.20247000  1.0
  H  H33  1  0.81611000  0.90116000  0.86675000  1.0
  H  H34  1  0.81865000  0.81887000  0.97126000  1.0
  H  H35  1  0.58139000  0.83249000  0.71974000  1.0
  H  H36  1  0.19565000  0.71838000  0.48360000  1.0
  H  H37  1  0.02948000  0.61974000  0.30439000  1.0
  H  H38  1  0.91073000  0.43580000  0.23366000  1.0
  H  H39  1  0.91381000  0.96544000  0.09827000  1.0
  H  H40  1  0.99896000  0.15229000  0.18065000  1.0
  H  H41  1  0.74914000  0.88716000  0.16761000  1.0
  H  H42  1  0.47841000  0.76506000  0.28191000  1.0
  H  H43  1  0.40961000  0.68442000  0.38027000  1.0
  H  H44  1  0.47341000  0.79757000  0.56399000  1.0
  H  H45  1  0.94841000  0.13246000  0.03403000  1.0
  H  H46  1  0.84615000  0.02813000  0.84728000  1.0
  H  H47  1  0.86230000  0.28021000  0.11242000  1.0
  C  C48  1  0.29448000  0.44447000  0.80666000  1.0
  C  C49  1  0.31388000  0.30715000  0.82452000  1.0
  C  C50  1  0.28983000  0.34651000  0.76270000  1.0
  C  C51  1  0.28158000  0.20072000  0.08888000  1.0
  C  C52  1  0.41111000  0.19482000  0.22806000  1.0
  C  C53  1  0.28152000  0.15732000  0.14757000  1.0
  C  C54  1  0.32725000  0.45535000  0.96326000  1.0
  C  C55  1  0.53600000  0.30062000  0.17917000  1.0
  C  C56  1  0.85038000  0.36217000  0.55533000  1.0
  C  C57  1  0.00621000  0.51746000  0.69262000  1.0
  C  C58  1  0.94329000  0.41627000  0.65336000  1.0
  C  C59  1  0.08130000  0.88827000  0.79955000  1.0
  C  C60  1  0.21623000  0.03335000  0.80517000  1.0
  C  C61  1  0.12473000  0.99037000  0.84297000  1.0
  C  C62  1  0.87136000  0.50785000  0.54428000  1.0
  C  C63  1  0.23487000  0.87863000  0.69915000  1.0
  C  C64  1  0.48771000  0.19333000  0.63762000  1.0
  C  C65  1  0.48964000  0.17541000  0.48258000  1.0
  C  C66  1  0.52726000  0.23729000  0.58368000  1.0
  C  C67  1  0.19342000  0.91147000  0.11213000  1.0
  C  C68  1  0.18287000  0.77202000  0.96704000  1.0
  C  C69  1  0.13449000  0.85286000  0.01008000  1.0
  C  C70  1  0.36399000  0.03664000  0.49202000  1.0
  C  C71  1  0.35660000  0.82058000  0.12155000  1.0
  C  C72  1  0.70551000  0.55553000  0.19334000  1.0
  C  C73  1  0.68611000  0.69285000  0.17548000  1.0
  C  C74  1  0.71017000  0.65349000  0.23730000  1.0
  C  C75  1  0.71842000  0.79927000  0.91111000  1.0
  C  C76  1  0.58889000  0.80518000  0.77193000  1.0
  C  C77  1  0.71849000  0.84268000  0.85243000  1.0
  C  C78  1  0.67274000  0.54465000  0.03674000  1.0
  C  C79  1  0.46400000  0.69938000  0.82083000  1.0
  C  C80  1  0.14961000  0.63783000  0.44467000  1.0
  C  C81  1  0.99378000  0.48254000  0.30738000  1.0
  C  C82  1  0.05671000  0.58373000  0.34664000  1.0
  C  C83  1  0.91869000  0.11172000  0.20045000  1.0
  C  C84  1  0.78375000  0.96664000  0.19482000  1.0
  C  C85  1  0.87526000  0.00963000  0.15703000  1.0
  C  C86  1  0.12863000  0.49215000  0.45572000  1.0
  C  C87  1  0.76512000  0.12136000  0.30084000  1.0
  C  C88  1  0.51230000  0.80667000  0.36239000  1.0
  C  C89  1  0.51036000  0.82458000  0.51743000  1.0
  C  C90  1  0.47274000  0.76270000  0.41632000  1.0
  C  C91  1  0.80659000  0.08854000  0.88788000  1.0
  C  C92  1  0.81714000  0.22799000  0.03296000  1.0
  C  C93  1  0.86553000  0.14715000  0.98993000  1.0
  C  C94  1  0.63602000  0.96336000  0.50799000  1.0
  C  C95  1  0.64341000  0.17942000  0.87845000  1.0
  N  N96  1  0.33357000  0.35886000  0.92126000  1.0
  N  N97  1  0.31183000  0.49787000  0.90303000  1.0
  N  N98  1  0.40318000  0.27041000  0.10282000  1.0
  N  N99  1  0.53282000  0.26674000  0.24642000  1.0
  N  N100  1  0.97399000  0.56243000  0.64080000  1.0
  N  N101  1  0.81409000  0.40507000  0.50183000  1.0
  N  N102  1  0.13255000  0.83249000  0.72952000  1.0
  N  N103  1  0.26546000  0.97977000  0.73299000  1.0
  N  N104  1  0.41254000  0.07862000  0.43758000  1.0
  N  N105  1  0.40864000  0.09690000  0.59469000  1.0
  N  N106  1  0.30066000  0.89715000  0.16779000  1.0
  N  N107  1  0.28584000  0.75331000  0.02047000  1.0
  N  N108  1  0.66642000  0.64114000  0.07874000  1.0
  N  N109  1  0.68816000  0.50213000  0.09696000  1.0
  N  N110  1  0.59682000  0.72959000  0.89718000  1.0
  N  N111  1  0.46718000  0.73326000  0.75357000  1.0
  N  N112  1  0.02601000  0.43757000  0.35920000  1.0
  N  N113  1  0.18590000  0.59493000  0.49817000  1.0
  N  N114  1  0.86745000  0.16751000  0.27048000  1.0
  N  N115  1  0.73454000  0.02022000  0.26701000  1.0
  N  N116  1  0.58746000  0.92137000  0.56242000  1.0
  N  N117  1  0.59137000  0.90310000  0.40533000  1.0
  N  N118  1  0.69935000  0.10285000  0.83221000  1.0
  N  N119  1  0.71416000  0.24669000  0.97952000  1.0
  O  O120  1  0.33941000  0.50176000  0.05206000  1.0
  O  O121  1  0.65541000  0.35700000  0.18813000  1.0
  O  O122  1  0.83670000  0.55015000  0.49780000  1.0
  O  O123  1  0.29773000  0.83120000  0.64270000  1.0
  O  O124  1  0.28724000  0.94781000  0.44961000  1.0
  O  O125  1  0.46692000  0.81140000  0.16884000  1.0
  O  O126  1  0.66057000  0.49824000  0.94794000  1.0
  O  O127  1  0.34458000  0.64299000  0.81185000  1.0
  O  O128  1  0.16329000  0.44985000  0.50220000  1.0
  O  O129  1  0.70227000  0.16880000  0.35730000  1.0
  O  O130  1  0.71276000  0.05218000  0.55039000  1.0
  O  O131  1  0.53309000  0.18860000  0.83116000  1.0
