# generated using pymatgen
data_Cu2H5C4S2I2N
_symmetry_space_group_name_H-M   'P 1'
_cell_length_a   7.47406000
_cell_length_b   7.58575000
_cell_length_c   9.39613000
_cell_angle_alpha   102.58900000
_cell_angle_beta   98.35700000
_cell_angle_gamma   104.22500000
_symmetry_Int_Tables_number   1
_chemical_formula_structural   Cu2H5C4S2I2N
_chemical_formula_sum   'Cu4 H10 C8 S4 I4 N2'
_cell_volume   492.71264324
_cell_formula_units_Z   2
loop_
 _symmetry_equiv_pos_site_id
 _symmetry_equiv_pos_as_xyz
  1  'x, y, z'
loop_
 _atom_site_type_symbol
 _atom_site_label
 _atom_site_symmetry_multiplicity
 _atom_site_fract_x
 _atom_site_fract_y
 _atom_site_fract_z
 _atom_site_occupancy
  Cu  Cu0  1  0.82827000  0.50247000  0.94081000  1.0
  Cu  Cu1  1  0.17173000  0.49755000  0.05919000  1.0
  Cu  Cu2  1  0.41597000  0.50496000  0.87088000  1.0
  Cu  Cu3  1  0.58405000  0.49505000  0.12913000  1.0
  H  H4  1  0.06716000  0.98160000  0.77490000  1.0
  H  H5  1  0.93284000  0.01840000  0.22508000  1.0
  H  H6  1  0.03368000  0.73293000  0.69017000  1.0
  H  H7  1  0.96632000  0.26707000  0.30981000  1.0
  H  H8  1  0.16936000  0.84326000  0.87609000  1.0
  H  H9  1  0.83064000  0.15674000  0.12389000  1.0
  H  H10  1  0.21956000  0.56012000  0.57101000  1.0
  H  H11  1  0.78045000  0.43989000  0.42901000  1.0
  H  H12  1  0.38454000  0.75663000  0.39573000  1.0
  H  H13  1  0.61543000  0.24336000  0.60428000  1.0
  C  C14  1  0.04853000  0.84082000  0.79326000  1.0
  C  C15  1  0.95147000  0.15917000  0.20672000  1.0
  C  C16  1  0.66333000  0.74289000  0.72322000  1.0
  C  C17  1  0.33667000  0.25711000  0.27679000  1.0
  C  C18  1  0.36706000  0.64074000  0.59166000  1.0
  C  C19  1  0.63293000  0.35924000  0.40836000  1.0
  C  C20  1  0.44855000  0.74134000  0.50210000  1.0
  C  C21  1  0.55143000  0.25866000  0.49789000  1.0
  S  S22  1  0.84519000  0.78032000  0.87508000  1.0
  S  S23  1  0.15482000  0.21969000  0.12491000  1.0
  S  S24  1  0.68554000  0.84185000  0.57509000  1.0
  S  S25  1  0.31444000  0.15815000  0.42491000  1.0
  I  I26  1  0.03599000  0.34893000  0.76641000  1.0
  I  I27  1  0.96402000  0.65107000  0.23360000  1.0
  I  I28  1  0.53199000  0.20808000  0.88749000  1.0
  I  I29  1  0.46801000  0.79192000  0.11253000  1.0
  N  N30  1  0.48900000  0.64059000  0.71673000  1.0
  N  N31  1  0.51100000  0.35941000  0.28328000  1.0
