# generated using pymatgen
data_AlH17(C6O)5
_symmetry_space_group_name_H-M   'P 1'
_cell_length_a   6.94307000
_cell_length_b   18.76540000
_cell_length_c   22.63820000
_cell_angle_alpha   90.00060000
_cell_angle_beta   89.99970000
_cell_angle_gamma   89.99770000
_symmetry_Int_Tables_number   1
_chemical_formula_structural   AlH17(C6O)5
_chemical_formula_sum   'Al4 H68 C120 O20'
_cell_volume   2949.51943436
_cell_formula_units_Z   4
loop_
 _symmetry_equiv_pos_site_id
 _symmetry_equiv_pos_as_xyz
  1  'x, y, z'
loop_
 _atom_site_type_symbol
 _atom_site_label
 _atom_site_symmetry_multiplicity
 _atom_site_fract_x
 _atom_site_fract_y
 _atom_site_fract_z
 _atom_site_occupancy
  Al  Al0  1  0.78402000  0.75110000  0.75328000  1.0
  Al  Al1  1  0.21593000  0.24891000  0.25327000  1.0
  Al  Al2  1  0.28403000  0.74890000  0.74673000  1.0
  Al  Al3  1  0.71595000  0.25110000  0.24673000  1.0
  H  H4  1  0.76189000  0.57905000  0.36694000  1.0
  H  H5  1  0.98430000  0.41583000  0.64269000  1.0
  H  H6  1  0.23794000  0.42096000  0.86692000  1.0
  H  H7  1  0.01560000  0.58416000  0.14269000  1.0
  H  H8  1  0.26199000  0.92097000  0.13308000  1.0
  H  H9  1  0.48433000  0.08417000  0.85732000  1.0
  H  H10  1  0.73787000  0.07904000  0.63309000  1.0
  H  H11  1  0.51553000  0.91583000  0.35732000  1.0
  H  H12  1  0.86062000  0.45872000  0.32955000  1.0
  H  H13  1  0.03739000  0.54236000  0.67051000  1.0
  H  H14  1  0.13931000  0.54128000  0.82955000  1.0
  H  H15  1  0.96258000  0.45764000  0.17051000  1.0
  H  H16  1  0.36064000  0.04129000  0.17046000  1.0
  H  H17  1  0.53735000  0.95764000  0.82950000  1.0
  H  H18  1  0.63929000  0.95872000  0.67046000  1.0
  H  H19  1  0.46259000  0.04236000  0.32949000  1.0
  H  H20  1  0.77099000  0.66763000  0.44575000  1.0
  H  H21  1  0.93823000  0.32572000  0.56634000  1.0
  H  H22  1  0.22893000  0.33237000  0.94573000  1.0
  H  H23  1  0.06169000  0.67428000  0.06634000  1.0
  H  H24  1  0.27107000  0.83238000  0.05427000  1.0
  H  H25  1  0.43826000  0.17428000  0.93367000  1.0
  H  H26  1  0.72886000  0.16762000  0.55427000  1.0
  H  H27  1  0.56161000  0.82572000  0.43367000  1.0
  H  H28  1  0.86309000  0.23329000  0.37562000  1.0
  H  H29  1  0.92911000  0.10875000  0.38838000  1.0
  H  H30  1  0.08856000  0.06396000  0.48068000  1.0
  H  H31  1  0.19261000  0.15225000  0.55655000  1.0
  H  H32  1  0.15625000  0.27935000  0.53883000  1.0
  H  H33  1  0.98506000  0.77481000  0.62675000  1.0
  H  H34  1  0.02773000  0.89665000  0.60130000  1.0
  H  H35  1  0.02998000  0.93639000  0.49548000  1.0
  H  H36  1  0.00825000  0.84353000  0.41649000  1.0
  H  H37  1  0.99837000  0.71852000  0.44179000  1.0
  H  H38  1  0.13687000  0.76672000  0.87563000  1.0
  H  H39  1  0.07085000  0.89126000  0.88840000  1.0
  H  H40  1  0.91137000  0.93604000  0.98069000  1.0
  H  H41  1  0.80732000  0.84775000  0.05656000  1.0
  H  H42  1  0.84367000  0.72065000  0.03884000  1.0
  H  H43  1  0.01498000  0.22517000  0.12673000  1.0
  H  H44  1  0.97228000  0.10334000  0.10125000  1.0
  H  H45  1  0.96996000  0.06362000  0.99543000  1.0
  H  H46  1  0.99163000  0.15650000  0.91646000  1.0
  H  H47  1  0.00148000  0.28150000  0.94178000  1.0
  H  H48  1  0.36308000  0.26672000  0.12438000  1.0
  H  H49  1  0.42910000  0.39127000  0.11161000  1.0
  H  H50  1  0.58861000  0.43603000  0.01932000  1.0
  H  H51  1  0.69267000  0.34774000  0.94345000  1.0
  H  H52  1  0.65632000  0.22064000  0.96117000  1.0
  H  H53  1  0.48500000  0.72517000  0.87327000  1.0
  H  H54  1  0.52769000  0.60335000  0.89874000  1.0
  H  H55  1  0.53003000  0.56361000  0.00457000  1.0
  H  H56  1  0.50838000  0.65649000  0.08354000  1.0
  H  H57  1  0.49851000  0.78150000  0.05822000  1.0
  H  H58  1  0.63687000  0.73328000  0.62437000  1.0
  H  H59  1  0.57088000  0.60873000  0.61159000  1.0
  H  H60  1  0.41134000  0.56397000  0.51931000  1.0
  H  H61  1  0.30723000  0.65226000  0.44346000  1.0
  H  H62  1  0.34358000  0.77936000  0.46118000  1.0
  H  H63  1  0.51500000  0.27484000  0.37327000  1.0
  H  H64  1  0.47232000  0.39667000  0.39875000  1.0
  H  H65  1  0.46993000  0.43639000  0.50458000  1.0
  H  H66  1  0.49153000  0.34350000  0.58354000  1.0
  H  H67  1  0.50138000  0.21849000  0.55821000  1.0
  H  H68  1  0.53881000  0.65560000  0.74249000  1.0
  H  H69  1  0.46117000  0.34441000  0.24251000  1.0
  H  H70  1  0.03877000  0.84441000  0.75748000  1.0
  H  H71  1  0.96119000  0.15560000  0.25749000  1.0
  C  C72  1  0.53723000  0.82951000  0.66873000  1.0
  C  C73  1  0.47180000  0.17460000  0.33447000  1.0
  C  C74  1  0.46275000  0.17049000  0.16873000  1.0
  C  C75  1  0.52817000  0.82540000  0.83447000  1.0
  C  C76  1  0.03722000  0.67049000  0.83128000  1.0
  C  C77  1  0.97179000  0.32540000  0.16553000  1.0
  C  C78  1  0.96274000  0.32952000  0.33127000  1.0
  C  C79  1  0.02817000  0.67459000  0.66554000  1.0
  C  C80  1  0.97111000  0.34708000  0.44509000  1.0
  C  C81  1  0.96715000  0.65517000  0.55249000  1.0
  C  C82  1  0.02881000  0.65292000  0.94510000  1.0
  C  C83  1  0.03280000  0.34483000  0.05249000  1.0
  C  C84  1  0.47114000  0.15292000  0.05491000  1.0
  C  C85  1  0.46716000  0.84483000  0.94752000  1.0
  C  C86  1  0.52879000  0.84708000  0.55491000  1.0
  C  C87  1  0.53276000  0.15517000  0.44751000  1.0
  C  C88  1  0.94488000  0.37284000  0.38665000  1.0
  C  C89  1  0.00689000  0.63032000  0.61060000  1.0
  C  C90  1  0.05505000  0.62717000  0.88665000  1.0
  C  C91  1  0.99307000  0.36967000  0.11059000  1.0
  C  C92  1  0.44491000  0.12718000  0.11335000  1.0
  C  C93  1  0.50688000  0.86967000  0.88941000  1.0
  C  C94  1  0.55504000  0.87283000  0.61335000  1.0
  C  C95  1  0.49306000  0.13032000  0.38941000  1.0
  C  C96  1  0.89394000  0.44318000  0.37489000  1.0
  C  C97  1  0.01239000  0.55814000  0.62469000  1.0
  C  C98  1  0.10597000  0.55683000  0.87489000  1.0
  C  C99  1  0.98758000  0.44186000  0.12469000  1.0
  C  C100  1  0.39397000  0.05684000  0.12512000  1.0
  C  C101  1  0.51237000  0.94186000  0.87532000  1.0
  C  C102  1  0.60596000  0.94317000  0.62512000  1.0
  C  C103  1  0.48756000  0.05814000  0.37531000  1.0
  C  C104  1  0.88816000  0.49440000  0.41952000  1.0
  C  C105  1  0.98681000  0.50531000  0.58199000  1.0
  C  C106  1  0.11173000  0.50561000  0.91952000  1.0
  C  C107  1  0.01314000  0.49469000  0.08199000  1.0
  C  C108  1  0.38821000  0.00561000  0.08049000  1.0
  C  C109  1  0.48682000  0.99469000  0.91801000  1.0
  C  C110  1  0.61169000  0.99439000  0.58049000  1.0
  C  C111  1  0.51309000  0.00531000  0.41801000  1.0
  C  C112  1  0.93347000  0.47315000  0.47819000  1.0
  C  C113  1  0.94862000  0.52682000  0.52293000  1.0
  C  C114  1  0.06645000  0.52685000  0.97819000  1.0
  C  C115  1  0.05131000  0.47319000  0.02292000  1.0
  C  C116  1  0.43350000  0.02686000  0.02182000  1.0
  C  C117  1  0.44865000  0.97319000  0.97708000  1.0
  C  C118  1  0.56641000  0.97315000  0.52181000  1.0
  C  C119  1  0.55126000  0.02681000  0.47708000  1.0
  C  C120  1  0.95734000  0.39877000  0.49163000  1.0
  C  C121  1  0.92231000  0.60110000  0.50959000  1.0
  C  C122  1  0.04259000  0.60123000  0.99164000  1.0
  C  C123  1  0.07762000  0.39890000  0.00958000  1.0
  C  C124  1  0.45738000  0.10123000  0.00837000  1.0
  C  C125  1  0.42234000  0.89891000  0.99043000  1.0
  C  C126  1  0.54254000  0.89877000  0.50837000  1.0
  C  C127  1  0.57758000  0.10110000  0.49042000  1.0
  C  C128  1  0.82611000  0.56582000  0.40959000  1.0
  C  C129  1  0.97966000  0.43132000  0.59620000  1.0
  C  C130  1  0.17377000  0.43419000  0.90957000  1.0
  C  C131  1  0.02027000  0.56868000  0.09619000  1.0
  C  C132  1  0.32618000  0.93419000  0.09043000  1.0
  C  C133  1  0.47969000  0.06868000  0.90381000  1.0
  C  C134  1  0.67372000  0.06581000  0.59043000  1.0
  C  C135  1  0.52019000  0.93132000  0.40381000  1.0
  C  C136  1  0.83724000  0.61606000  0.45304000  1.0
  C  C137  1  0.95895000  0.38078000  0.55331000  1.0
  C  C138  1  0.16268000  0.38394000  0.95302000  1.0
  C  C139  1  0.04097000  0.61923000  0.05331000  1.0
  C  C140  1  0.33729000  0.88395000  0.04698000  1.0
  C  C141  1  0.45899000  0.11923000  0.94670000  1.0
  C  C142  1  0.66262000  0.11606000  0.54698000  1.0
  C  C143  1  0.54090000  0.88077000  0.44669000  1.0
  C  C144  1  0.00372000  0.26974000  0.45595000  1.0
  C  C145  1  0.94484000  0.21824000  0.41442000  1.0
  C  C146  1  0.97779000  0.14574000  0.42235000  1.0
  C  C147  1  0.06460000  0.12077000  0.47379000  1.0
  C  C148  1  0.12069000  0.17017000  0.51636000  1.0
  C  C149  1  0.09431000  0.24291000  0.50705000  1.0
  C  C150  1  0.97783000  0.73235000  0.53686000  1.0
  C  C151  1  0.99225000  0.78631000  0.57997000  1.0
  C  C152  1  0.01458000  0.85803000  0.56559000  1.0
  C  C153  1  0.01653000  0.88018000  0.50689000  1.0
  C  C154  1  0.00214000  0.82838000  0.46300000  1.0
  C  C155  1  0.98834000  0.75652000  0.47771000  1.0
  C  C156  1  0.99621000  0.73027000  0.95595000  1.0
  C  C157  1  0.05511000  0.78177000  0.91443000  1.0
  C  C158  1  0.02216000  0.85427000  0.92237000  1.0
  C  C159  1  0.93534000  0.87923000  0.97380000  1.0
  C  C160  1  0.87924000  0.82983000  0.01637000  1.0
  C  C161  1  0.90561000  0.75709000  0.00706000  1.0
  C  C162  1  0.02211000  0.26765000  0.03684000  1.0
  C  C163  1  0.00774000  0.21368000  0.07995000  1.0
  C  C164  1  0.98541000  0.14197000  0.06555000  1.0
  C  C165  1  0.98342000  0.11982000  0.00686000  1.0
  C  C166  1  0.99777000  0.17164000  0.96296000  1.0
  C  C167  1  0.01155000  0.24349000  0.97769000  1.0
  C  C168  1  0.50376000  0.23026000  0.04406000  1.0
  C  C169  1  0.44485000  0.28177000  0.08557000  1.0
  C  C170  1  0.47779000  0.35427000  0.07764000  1.0
  C  C171  1  0.56463000  0.37923000  0.02620000  1.0
  C  C172  1  0.62074000  0.32982000  0.98364000  1.0
  C  C173  1  0.59436000  0.25708000  0.99295000  1.0
  C  C174  1  0.47785000  0.76765000  0.96316000  1.0
  C  C175  1  0.49222000  0.71368000  0.92005000  1.0
  C  C176  1  0.51456000  0.64197000  0.93445000  1.0
  C  C177  1  0.51655000  0.61982000  0.99314000  1.0
  C  C178  1  0.50221000  0.67164000  0.03703000  1.0
  C  C179  1  0.48841000  0.74349000  0.02231000  1.0
  C  C180  1  0.49618000  0.76974000  0.54406000  1.0
  C  C181  1  0.55511000  0.71823000  0.58557000  1.0
  C  C182  1  0.52217000  0.64573000  0.57763000  1.0
  C  C183  1  0.43532000  0.62077000  0.52620000  1.0
  C  C184  1  0.37917000  0.67018000  0.48364000  1.0
  C  C185  1  0.40556000  0.74292000  0.49295000  1.0
  C  C186  1  0.52208000  0.23235000  0.46316000  1.0
  C  C187  1  0.50774000  0.28632000  0.42005000  1.0
  C  C188  1  0.48542000  0.35803000  0.43445000  1.0
  C  C189  1  0.48339000  0.38017000  0.49314000  1.0
  C  C190  1  0.49771000  0.32835000  0.53703000  1.0
  C  C191  1  0.51149000  0.25650000  0.52230000  1.0
  O  O192  1  0.36982000  0.81185000  0.80784000  1.0
  O  O193  1  0.63071000  0.18746000  0.18604000  1.0
  O  O194  1  0.63014000  0.18815000  0.30784000  1.0
  O  O195  1  0.36925000  0.81254000  0.68604000  1.0
  O  O196  1  0.86983000  0.68814000  0.69217000  1.0
  O  O197  1  0.13071000  0.31255000  0.31396000  1.0
  O  O198  1  0.13014000  0.31185000  0.19216000  1.0
  O  O199  1  0.86927000  0.68746000  0.81396000  1.0
  O  O200  1  0.69503000  0.81877000  0.69650000  1.0
  O  O201  1  0.30348000  0.18853000  0.31592000  1.0
  O  O202  1  0.30495000  0.18124000  0.19650000  1.0
  O  O203  1  0.69649000  0.81148000  0.81592000  1.0
  O  O204  1  0.19504000  0.68124000  0.80352000  1.0
  O  O205  1  0.80346000  0.31148000  0.18408000  1.0
  O  O206  1  0.80493000  0.31878000  0.30351000  1.0
  O  O207  1  0.19651000  0.68851000  0.68410000  1.0
  O  O208  1  0.53505000  0.70652000  0.74946000  1.0
  O  O209  1  0.46490000  0.29349000  0.24946000  1.0
  O  O210  1  0.03506000  0.79349000  0.75055000  1.0
  O  O211  1  0.96490000  0.20652000  0.25054000  1.0
