# generated using pymatgen
data_CoH20C26S2(NO2)2
_symmetry_space_group_name_H-M   'P 1'
_cell_length_a   11.01250000
_cell_length_b   11.10270000
_cell_length_c   11.69110000
_cell_angle_alpha   62.94130000
_cell_angle_beta   79.16940000
_cell_angle_gamma   77.39340000
_symmetry_Int_Tables_number   1
_chemical_formula_structural   CoH20C26S2(NO2)2
_chemical_formula_sum   'Co2 H40 C52 S4 N4 O8'
_cell_volume   1235.82112275
_cell_formula_units_Z   2
loop_
 _symmetry_equiv_pos_site_id
 _symmetry_equiv_pos_as_xyz
  1  'x, y, z'
loop_
 _atom_site_type_symbol
 _atom_site_label
 _atom_site_symmetry_multiplicity
 _atom_site_fract_x
 _atom_site_fract_y
 _atom_site_fract_z
 _atom_site_occupancy
  Co  Co0  1  0.80889000  0.21878000  0.33832000  1.0
  Co  Co1  1  0.19112000  0.78122000  0.66167000  1.0
  H  H2  1  0.75040000  0.42985000  0.43158000  1.0
  H  H3  1  0.24960000  0.57015000  0.56843000  1.0
  H  H4  1  0.59210000  0.63252000  0.41382000  1.0
  H  H5  1  0.40790000  0.36747000  0.58619000  1.0
  H  H6  1  0.41640000  0.55728000  0.15450000  1.0
  H  H7  1  0.58360000  0.44272000  0.84550000  1.0
  H  H8  1  0.58072000  0.35729000  0.18632000  1.0
  H  H9  1  0.41928000  0.64271000  0.81367000  1.0
  H  H10  1  0.22422000  0.88127000  0.13832000  1.0
  H  H11  1  0.77578000  0.11872000  0.86167000  1.0
  H  H12  1  0.34275000  0.79856000  0.06326000  1.0
  H  H13  1  0.65726000  0.20144000  0.93674000  1.0
  H  H14  1  0.15580000  0.63294000  0.38812000  1.0
  H  H15  1  0.84420000  0.36707000  0.61188000  1.0
  H  H16  1  0.03046000  0.44956000  0.43633000  1.0
  H  H17  1  0.96955000  0.55045000  0.56368000  1.0
  H  H18  1  0.09604000  0.52215000  0.03745000  1.0
  H  H19  1  0.90396000  0.47784000  0.96255000  1.0
  H  H20  1  0.23394000  0.68954000  0.99288000  1.0
  H  H21  1  0.76605000  0.31045000  0.00712000  1.0
  H  H22  1  0.58232000  0.08212000  0.47442000  1.0
  H  H23  1  0.41768000  0.91790000  0.52557000  1.0
  H  H24  1  0.52275000  0.89719000  0.68893000  1.0
  H  H25  1  0.47724000  0.10282000  0.31106000  1.0
  H  H26  1  0.88541000  0.88197000  0.79649000  1.0
  H  H27  1  0.11458000  0.11803000  0.20351000  1.0
  H  H28  1  0.92521000  0.06720000  0.58169000  1.0
  H  H29  1  0.07479000  0.93281000  0.41831000  1.0
  H  H30  1  0.76692000  0.60421000  0.08651000  1.0
  H  H31  1  0.23307000  0.39579000  0.91348000  1.0
  H  H32  1  0.87071000  0.68722000  0.95277000  1.0
  H  H33  1  0.12928000  0.31279000  0.04722000  1.0
  H  H34  1  0.97880000  0.78327000  0.04120000  1.0
  H  H35  1  0.02119000  0.21672000  0.95881000  1.0
  H  H36  1  0.98064000  0.93605000  0.14402000  1.0
  H  H37  1  0.01935000  0.06394000  0.85599000  1.0
  H  H38  1  0.57889000  0.01381000  0.17706000  1.0
  H  H39  1  0.42111000  0.98619000  0.82294000  1.0
  H  H40  1  0.57659000  0.86129000  0.07573000  1.0
  H  H41  1  0.42341000  0.13871000  0.92427000  1.0
  C  C42  1  0.67401000  0.46165000  0.37196000  1.0
  C  C43  1  0.32599000  0.53834000  0.62805000  1.0
  C  C44  1  0.58531000  0.57467000  0.36152000  1.0
  C  C45  1  0.41469000  0.42532000  0.63849000  1.0
  C  C46  1  0.48830000  0.61389000  0.28256000  1.0
  C  C47  1  0.51170000  0.38611000  0.71745000  1.0
  C  C48  1  0.48811000  0.53488000  0.21672000  1.0
  C  C49  1  0.51190000  0.46512000  0.78328000  1.0
  C  C50  1  0.58012000  0.42216000  0.23379000  1.0
  C  C51  1  0.41988000  0.57784000  0.76621000  1.0
  C  C52  1  0.28267000  0.78201000  0.15388000  1.0
  C  C53  1  0.71733000  0.21798000  0.84612000  1.0
  C  C54  1  0.20404000  0.67276000  0.18761000  1.0
  C  C55  1  0.79596000  0.32724000  0.81239000  1.0
  C  C56  1  0.14523000  0.60566000  0.31222000  1.0
  C  C57  1  0.85477000  0.39434000  0.68778000  1.0
  C  C58  1  0.07419000  0.50463000  0.33921000  1.0
  C  C59  1  0.92582000  0.49536000  0.66079000  1.0
  C  C60  1  0.05632000  0.47307000  0.24088000  1.0
  C  C61  1  0.94368000  0.52692000  0.75912000  1.0
  C  C62  1  0.11320000  0.54152000  0.11584000  1.0
  C  C63  1  0.88681000  0.45847000  0.88416000  1.0
  C  C64  1  0.18854000  0.63829000  0.09036000  1.0
  C  C65  1  0.81147000  0.36170000  0.90964000  1.0
  C  C66  1  0.97233000  0.37332000  0.26676000  1.0
  C  C67  1  0.02768000  0.62667000  0.73325000  1.0
  C  C68  1  0.64581000  0.03382000  0.54950000  1.0
  C  C69  1  0.35419000  0.96619000  0.45050000  1.0
  C  C70  1  0.61404000  0.93033000  0.66820000  1.0
  C  C71  1  0.38596000  0.06968000  0.33179000  1.0
  C  C72  1  0.69969000  0.87076000  0.76204000  1.0
  C  C73  1  0.30031000  0.12925000  0.23795000  1.0
  C  C74  1  0.81350000  0.92188000  0.73059000  1.0
  C  C75  1  0.18650000  0.07814000  0.26940000  1.0
  C  C76  1  0.83742000  0.02592000  0.60867000  1.0
  C  C77  1  0.16258000  0.97409000  0.39132000  1.0
  C  C78  1  0.77973000  0.70419000  0.00531000  1.0
  C  C79  1  0.22026000  0.29581000  0.99469000  1.0
  C  C80  1  0.77755000  0.80852000  0.05500000  1.0
  C  C81  1  0.22244000  0.19147000  0.94500000  1.0
  C  C82  1  0.89104000  0.83289000  0.07209000  1.0
  C  C83  1  0.10895000  0.16710000  0.92792000  1.0
  C  C84  1  0.89248000  0.91806000  0.12974000  1.0
  C  C85  1  0.10752000  0.08192000  0.87027000  1.0
  C  C86  1  0.78010000  0.98281000  0.16935000  1.0
  C  C87  1  0.21990000  0.01718000  0.83066000  1.0
  C  C88  1  0.66649000  0.96189000  0.14857000  1.0
  C  C89  1  0.33351000  0.03810000  0.85143000  1.0
  C  C90  1  0.66544000  0.87614000  0.09174000  1.0
  C  C91  1  0.33456000  0.12387000  0.90826000  1.0
  C  C92  1  0.78021000  0.07497000  0.22986000  1.0
  C  C93  1  0.21979000  0.92502000  0.77014000  1.0
  S  S94  1  0.37872000  0.75555000  0.27551000  1.0
  S  S95  1  0.62128000  0.24445000  0.72449000  1.0
  S  S96  1  0.65581000  0.73773000  0.90788000  1.0
  S  S97  1  0.34418000  0.26229000  0.09211000  1.0
  N  N98  1  0.67256000  0.38446000  0.30996000  1.0
  N  N99  1  0.32744000  0.61554000  0.69004000  1.0
  N  N100  1  0.75636000  0.08119000  0.51801000  1.0
  N  N101  1  0.24364000  0.91882000  0.48199000  1.0
  O  O102  1  0.93893000  0.29207000  0.38478000  1.0
  O  O103  1  0.06108000  0.70792000  0.61522000  1.0
  O  O104  1  0.92990000  0.37129000  0.17409000  1.0
  O  O105  1  0.07010000  0.62871000  0.82592000  1.0
  O  O106  1  0.88416000  0.08903000  0.25418000  1.0
  O  O107  1  0.11584000  0.91097000  0.74582000  1.0
  O  O108  1  0.67797000  0.14139000  0.25667000  1.0
  O  O109  1  0.32203000  0.85862000  0.74332000  1.0
