# generated using pymatgen
data_Mn2H36C38N6O11
_symmetry_space_group_name_H-M   'P 1'
_cell_length_a   8.72204000
_cell_length_b   11.63150000
_cell_length_c   17.95690000
_cell_angle_alpha   90.00030000
_cell_angle_beta   90.00020000
_cell_angle_gamma   78.95600000
_symmetry_Int_Tables_number   1
_chemical_formula_structural   Mn2H36C38N6O11
_chemical_formula_sum   'Mn4 H72 C76 N12 O22'
_cell_volume   1787.99696858
_cell_formula_units_Z   2
loop_
 _symmetry_equiv_pos_site_id
 _symmetry_equiv_pos_as_xyz
  1  'x, y, z'
loop_
 _atom_site_type_symbol
 _atom_site_label
 _atom_site_symmetry_multiplicity
 _atom_site_fract_x
 _atom_site_fract_y
 _atom_site_fract_z
 _atom_site_occupancy
  Mn  Mn0  1  0.95371000  0.88241000  0.91112000  1.0
  Mn  Mn1  1  0.04628000  0.11759000  0.41112000  1.0
  Mn  Mn2  1  0.46995000  0.87539000  0.06534000  1.0
  Mn  Mn3  1  0.53005000  0.12461000  0.56534000  1.0
  H  H4  1  0.72109000  0.82735000  0.14830000  1.0
  H  H5  1  0.27891000  0.17265000  0.64830000  1.0
  H  H6  1  0.80340000  0.85613000  0.06921000  1.0
  H  H7  1  0.19660000  0.14387000  0.56921000  1.0
  H  H8  1  0.20490000  0.85130000  0.82926000  1.0
  H  H9  1  0.79509000  0.14870000  0.32926000  1.0
  H  H10  1  0.29052000  0.86731000  0.90970000  1.0
  H  H11  1  0.70947000  0.13270000  0.40970000  1.0
  H  H12  1  0.25548000  0.87651000  0.20026000  1.0
  H  H13  1  0.74452000  0.12349000  0.70026000  1.0
  H  H14  1  0.92779000  0.91925000  0.16738000  1.0
  H  H15  1  0.07221000  0.08075000  0.66738000  1.0
  H  H16  1  0.98003000  0.11241000  0.11898000  1.0
  H  H17  1  0.01997000  0.88759000  0.61898000  1.0
  H  H18  1  0.17123000  0.07677000  0.15887000  1.0
  H  H19  1  0.82877000  0.92323000  0.65887000  1.0
  H  H20  1  0.43685000  0.92587000  0.80761000  1.0
  H  H21  1  0.56315000  0.07413000  0.30761000  1.0
  H  H22  1  0.64321000  0.91430000  0.79216000  1.0
  H  H23  1  0.35679000  0.08570000  0.29216000  1.0
  H  H24  1  0.43935000  0.13097000  0.86282000  1.0
  H  H25  1  0.56065000  0.86903000  0.36282000  1.0
  H  H26  1  0.63650000  0.11358000  0.82977000  1.0
  H  H27  1  0.36350000  0.88642000  0.32977000  1.0
  H  H28  1  0.79810000  0.10424000  0.99998000  1.0
  H  H29  1  0.20190000  0.89576000  0.49998000  1.0
  H  H30  1  0.79102000  0.31991000  0.00729000  1.0
  H  H31  1  0.20898000  0.68009000  0.50729000  1.0
  H  H32  1  0.10853000  0.27780000  0.81891000  1.0
  H  H33  1  0.89147000  0.72220000  0.31891000  1.0
  H  H34  1  0.11047000  0.06771000  0.82359000  1.0
  H  H35  1  0.88953000  0.93229000  0.32359000  1.0
  H  H36  1  0.72385000  0.70895000  0.96703000  1.0
  H  H37  1  0.27615000  0.29105000  0.46703000  1.0
  H  H38  1  0.71813000  0.49705000  0.96919000  1.0
  H  H39  1  0.28187000  0.50295000  0.46919000  1.0
  H  H40  1  0.16459000  0.43984000  0.85480000  1.0
  H  H41  1  0.83541000  0.56017000  0.35480000  1.0
  H  H42  1  0.14692000  0.65263000  0.85563000  1.0
  H  H43  1  0.85308000  0.34738000  0.35563000  1.0
  H  H44  1  0.63635000  0.05607000  0.14987000  1.0
  H  H45  1  0.36365000  0.94393000  0.64987000  1.0
  H  H46  1  0.64967000  0.26295000  0.15062000  1.0
  H  H47  1  0.35033000  0.73705000  0.65061000  1.0
  H  H48  1  0.26582000  0.31955000  0.99228000  1.0
  H  H49  1  0.73418000  0.68044000  0.49228000  1.0
  H  H50  1  0.27194000  0.10618000  0.99750000  1.0
  H  H51  1  0.72806000  0.89382000  0.49750000  1.0
  H  H52  1  0.61802000  0.65215000  0.15593000  1.0
  H  H53  1  0.38198000  0.34785000  0.65593000  1.0
  H  H54  1  0.62592000  0.44003000  0.16069000  1.0
  H  H55  1  0.37407000  0.55997000  0.66069000  1.0
  H  H56  1  0.29796000  0.48576000  0.97663000  1.0
  H  H57  1  0.70204000  0.51424000  0.47663000  1.0
  H  H58  1  0.29819000  0.69662000  0.98273000  1.0
  H  H59  1  0.70181000  0.30338000  0.48273000  1.0
  H  H60  1  0.08040000  0.35639000  0.58278000  1.0
  H  H61  1  0.91960000  0.64360000  0.08278000  1.0
  H  H62  1  0.86254000  0.33613000  0.66714000  1.0
  H  H63  1  0.13747000  0.66387000  0.16714000  1.0
  H  H64  1  0.85446000  0.69435000  0.73725000  1.0
  H  H65  1  0.14554000  0.30565000  0.23726000  1.0
  H  H66  1  0.07161000  0.69777000  0.64992000  1.0
  H  H67  1  0.92839000  0.30223000  0.14992000  1.0
  H  H68  1  0.38832000  0.68304000  0.84145000  1.0
  H  H69  1  0.61168000  0.31695000  0.34145000  1.0
  H  H70  1  0.61799000  0.69837000  0.76399000  1.0
  H  H71  1  0.38202000  0.30163000  0.26399000  1.0
  H  H72  1  0.73692000  0.31934000  0.76457000  1.0
  H  H73  1  0.26308000  0.68065000  0.26458000  1.0
  H  H74  1  0.49864000  0.32100000  0.84043000  1.0
  H  H75  1  0.50136000  0.67900000  0.34043000  1.0
  C  C76  1  0.08432000  0.90166000  0.07323000  1.0
  C  C77  1  0.91568000  0.09834000  0.57323000  1.0
  C  C78  1  0.04638000  0.93291000  0.15516000  1.0
  C  C79  1  0.95362000  0.06709000  0.65516000  1.0
  C  C80  1  0.05012000  0.06438000  0.16408000  1.0
  C  C81  1  0.94988000  0.93562000  0.66408000  1.0
  C  C82  1  0.98071000  0.10837000  0.23856000  1.0
  C  C83  1  0.01929000  0.89163000  0.73856000  1.0
  C  C84  1  0.57681000  0.91925000  0.90713000  1.0
  C  C85  1  0.42319000  0.08076000  0.40713000  1.0
  C  C86  1  0.54311000  0.95448000  0.82668000  1.0
  C  C87  1  0.45689000  0.04552000  0.32668000  1.0
  C  C88  1  0.45921000  0.12877000  0.74385000  1.0
  C  C89  1  0.54079000  0.87123000  0.24385000  1.0
  C  C90  1  0.52250000  0.08902000  0.82042000  1.0
  C  C91  1  0.47750000  0.91098000  0.32042000  1.0
  C  C92  1  0.86657000  0.14724000  0.96182000  1.0
  C  C93  1  0.13343000  0.85276000  0.46182000  1.0
  C  C94  1  0.86093000  0.26734000  0.96475000  1.0
  C  C95  1  0.13907000  0.73266000  0.46475000  1.0
  C  C96  1  0.94754000  0.31956000  0.91308000  1.0
  C  C97  1  0.05246000  0.68044000  0.41308000  1.0
  C  C98  1  0.03916000  0.24543000  0.86171000  1.0
  C  C99  1  0.96084000  0.75457000  0.36171000  1.0
  C  C100  1  0.03972000  0.12584000  0.86337000  1.0
  C  C101  1  0.96028000  0.87417000  0.36337000  1.0
  C  C102  1  0.81841000  0.64584000  0.94212000  1.0
  C  C103  1  0.18159000  0.35417000  0.44212000  1.0
  C  C104  1  0.81707000  0.52660000  0.94389000  1.0
  C  C105  1  0.18293000  0.47340000  0.44389000  1.0
  C  C106  1  0.94174000  0.44721000  0.91239000  1.0
  C  C107  1  0.05826000  0.55279000  0.41239000  1.0
  C  C108  1  0.06207000  0.49427000  0.87977000  1.0
  C  C109  1  0.93793000  0.50573000  0.37977000  1.0
  C  C110  1  0.05401000  0.61459000  0.88015000  1.0
  C  C111  1  0.94599000  0.38541000  0.38015000  1.0
  C  C112  1  0.55623000  0.11657000  0.11486000  1.0
  C  C113  1  0.44377000  0.88344000  0.61486000  1.0
  C  C114  1  0.56293000  0.23503000  0.11481000  1.0
  C  C115  1  0.43707000  0.76497000  0.61481000  1.0
  C  C116  1  0.45899000  0.31375000  0.07036000  1.0
  C  C117  1  0.54101000  0.68626000  0.57036000  1.0
  C  C118  1  0.35260000  0.26506000  0.02725000  1.0
  C  C119  1  0.64740000  0.73494000  0.52725000  1.0
  C  C120  1  0.35416000  0.14543000  0.03016000  1.0
  C  C121  1  0.64584000  0.85457000  0.53016000  1.0
  C  C122  1  0.54717000  0.61168000  0.11764000  1.0
  C  C123  1  0.45283000  0.38832000  0.61764000  1.0
  C  C124  1  0.55182000  0.49167000  0.11940000  1.0
  C  C125  1  0.44818000  0.50833000  0.61940000  1.0
  C  C126  1  0.46029000  0.44083000  0.06948000  1.0
  C  C127  1  0.53971000  0.55917000  0.56948000  1.0
  C  C128  1  0.36918000  0.51702000  0.01884000  1.0
  C  C129  1  0.63082000  0.48298000  0.51884000  1.0
  C  C130  1  0.36993000  0.63621000  0.02102000  1.0
  C  C131  1  0.63007000  0.36379000  0.52102000  1.0
  C  C132  1  0.02591000  0.43029000  0.61732000  1.0
  C  C133  1  0.97409000  0.56970000  0.11732000  1.0
  C  C134  1  0.90367000  0.41897000  0.66499000  1.0
  C  C135  1  0.09633000  0.58103000  0.16499000  1.0
  C  C136  1  0.83457000  0.51512000  0.70866000  1.0
  C  C137  1  0.16543000  0.48488000  0.20866000  1.0
  C  C138  1  0.89739000  0.61731000  0.70322000  1.0
  C  C139  1  0.10261000  0.38269000  0.20323000  1.0
  C  C140  1  0.02052000  0.61926000  0.65425000  1.0
  C  C141  1  0.97949000  0.38073000  0.15426000  1.0
  C  C142  1  0.46766000  0.60380000  0.82295000  1.0
  C  C143  1  0.53234000  0.39620000  0.32295000  1.0
  C  C144  1  0.59795000  0.61218000  0.78006000  1.0
  C  C145  1  0.40205000  0.38782000  0.28006000  1.0
  C  C146  1  0.69914000  0.50975000  0.75690000  1.0
  C  C147  1  0.30086000  0.49025000  0.25690000  1.0
  C  C148  1  0.66301000  0.40258000  0.77983000  1.0
  C  C149  1  0.33700000  0.59741000  0.27983000  1.0
  C  C150  1  0.52941000  0.40342000  0.82248000  1.0
  C  C151  1  0.47059000  0.59658000  0.32248000  1.0
  N  N152  1  0.95427000  0.07673000  0.91205000  1.0
  N  N153  1  0.04573000  0.92327000  0.41205000  1.0
  N  N154  1  0.93499000  0.69024000  0.91090000  1.0
  N  N155  1  0.06501000  0.30976000  0.41090000  1.0
  N  N156  1  0.45356000  0.07113000  0.07348000  1.0
  N  N157  1  0.54643000  0.92887000  0.57348000  1.0
  N  N158  1  0.45663000  0.68410000  0.07001000  1.0
  N  N159  1  0.54337000  0.31590000  0.57001000  1.0
  N  N160  1  0.08391000  0.52878000  0.61078000  1.0
  N  N161  1  0.91609000  0.47121000  0.11078000  1.0
  N  N162  1  0.43110000  0.50134000  0.84377000  1.0
  N  N163  1  0.56890000  0.49866000  0.34377000  1.0
  O  O164  1  0.21962000  0.90245000  0.04892000  1.0
  O  O165  1  0.78038000  0.09755000  0.54892000  1.0
  O  O166  1  0.71229000  0.82878000  0.09202000  1.0
  O  O167  1  0.28771000  0.17122000  0.59202000  1.0
  O  O168  1  0.97184000  0.88095000  0.03245000  1.0
  O  O169  1  0.02816000  0.11905000  0.53245000  1.0
  O  O170  1  0.20182000  0.83919000  0.88552000  1.0
  O  O171  1  0.79817000  0.16081000  0.38552000  1.0
  O  O172  1  0.83225000  0.12844000  0.24420000  1.0
  O  O173  1  0.16775000  0.87156000  0.74420000  1.0
  O  O174  1  0.07569000  0.11902000  0.29112000  1.0
  O  O175  1  0.92431000  0.88098000  0.79112000  1.0
  O  O176  1  0.14709000  0.86038000  0.20516000  1.0
  O  O177  1  0.85291000  0.13962000  0.70516000  1.0
  O  O178  1  0.46729000  0.88728000  0.94532000  1.0
  O  O179  1  0.53271000  0.11272000  0.44532000  1.0
  O  O180  1  0.70716000  0.92683000  0.93537000  1.0
  O  O181  1  0.29284000  0.07317000  0.43536000  1.0
  O  O182  1  0.31384000  0.16599000  0.73651000  1.0
  O  O183  1  0.68616000  0.83401000  0.23651000  1.0
  O  O184  1  0.55784000  0.11817000  0.68985000  1.0
  O  O185  1  0.44217000  0.88182000  0.18985000  1.0
