# generated using pymatgen
data_Zn2H15C9N13O2
_symmetry_space_group_name_H-M   'P 1'
_cell_length_a   10.14120000
_cell_length_b   10.23910000
_cell_length_c   21.40010000
_cell_angle_alpha   90.00030000
_cell_angle_beta   90.00010000
_cell_angle_gamma   92.88750000
_symmetry_Int_Tables_number   1
_chemical_formula_structural   Zn2H15C9N13O2
_chemical_formula_sum   'Zn8 H60 C36 N52 O8'
_cell_volume   2219.29580324
_cell_formula_units_Z   4
loop_
 _symmetry_equiv_pos_site_id
 _symmetry_equiv_pos_as_xyz
  1  'x, y, z'
loop_
 _atom_site_type_symbol
 _atom_site_label
 _atom_site_symmetry_multiplicity
 _atom_site_fract_x
 _atom_site_fract_y
 _atom_site_fract_z
 _atom_site_occupancy
  Zn  Zn0  1  0.31407000  0.49299000  0.58174000  1.0
  Zn  Zn1  1  0.68593000  0.50700000  0.08174000  1.0
  Zn  Zn2  1  0.47912000  0.52465000  0.35123000  1.0
  Zn  Zn3  1  0.52089000  0.47535000  0.85123000  1.0
  Zn  Zn4  1  0.02025000  0.98062000  0.52478000  1.0
  Zn  Zn5  1  0.97975000  0.01938000  0.02478000  1.0
  Zn  Zn6  1  0.18453000  0.01290000  0.29479000  1.0
  Zn  Zn7  1  0.81548000  0.98710000  0.79478000  1.0
  H  H8  1  0.73109000  0.52195000  0.37432000  1.0
  H  H9  1  0.26891000  0.47804000  0.87432000  1.0
  H  H10  1  0.67393000  0.64927000  0.40921000  1.0
  H  H11  1  0.32607000  0.35073000  0.90920000  1.0
  H  H12  1  0.84626000  0.82463000  0.47150000  1.0
  H  H13  1  0.15374000  0.17537000  0.97150000  1.0
  H  H14  1  0.76694000  0.94544000  0.50082000  1.0
  H  H15  1  0.23306000  0.05455000  0.00082000  1.0
  H  H16  1  0.19797000  0.60602000  0.45052000  1.0
  H  H17  1  0.80203000  0.39397000  0.95052000  1.0
  H  H18  1  0.03982000  0.59292000  0.48558000  1.0
  H  H19  1  0.96018000  0.40708000  0.98557000  1.0
  H  H20  1  0.08732000  0.73473000  0.43958000  1.0
  H  H21  1  0.91267000  0.26526000  0.93958000  1.0
  H  H22  1  0.57028000  0.58749000  0.63904000  1.0
  H  H23  1  0.42972000  0.41251000  0.13904000  1.0
  H  H24  1  0.54364000  0.69612000  0.70177000  1.0
  H  H25  1  0.45636000  0.30388000  0.20177000  1.0
  H  H26  1  0.64698000  0.56151000  0.71235000  1.0
  H  H27  1  0.35302000  0.43850000  0.21235000  1.0
  H  H28  1  0.31386000  0.06145000  0.52493000  1.0
  H  H29  1  0.68613000  0.93855000  0.02492000  1.0
  H  H30  1  0.38405000  0.20591000  0.48883000  1.0
  H  H31  1  0.61596000  0.79408000  0.98883000  1.0
  H  H32  1  0.39143000  0.18754000  0.57121000  1.0
  H  H33  1  0.60856000  0.81245000  0.07121000  1.0
  H  H34  1  0.06894000  0.09086000  0.73616000  1.0
  H  H35  1  0.93106000  0.90915000  0.23616000  1.0
  H  H36  1  0.14232000  0.07327000  0.66147000  1.0
  H  H37  1  0.85768000  0.92674000  0.16147000  1.0
  H  H38  1  0.03266000  0.20164000  0.67561000  1.0
  H  H39  1  0.96733000  0.79836000  0.17561000  1.0
  H  H40  1  0.42368000  0.77372000  0.43567000  1.0
  H  H41  1  0.57632000  0.22629000  0.93567000  1.0
  H  H42  1  0.47458000  0.91233000  0.38780000  1.0
  H  H43  1  0.52542000  0.08768000  0.88780000  1.0
  H  H44  1  0.31872000  0.90734000  0.42501000  1.0
  H  H45  1  0.68128000  0.09266000  0.92500000  1.0
  H  H46  1  0.08482000  0.27107000  0.32810000  1.0
  H  H47  1  0.91518000  0.72893000  0.82810000  1.0
  H  H48  1  0.14833000  0.38590000  0.38465000  1.0
  H  H49  1  0.85167000  0.61411000  0.88465000  1.0
  H  H50  1  0.16726000  0.42126000  0.30386000  1.0
  H  H51  1  0.83274000  0.57874000  0.80386000  1.0
  H  H52  1  0.65090000  0.37589000  0.45053000  1.0
  H  H53  1  0.34910000  0.62411000  0.95053000  1.0
  H  H54  1  0.85328000  0.50245000  0.48791000  1.0
  H  H55  1  0.14672000  0.49755000  0.98791000  1.0
  H  H56  1  0.75236000  0.62320000  0.52163000  1.0
  H  H57  1  0.24765000  0.37680000  0.02162000  1.0
  H  H58  1  0.74633000  0.46128000  0.55089000  1.0
  H  H59  1  0.25367000  0.53873000  0.05089000  1.0
  H  H60  1  0.78792000  0.92488000  0.37818000  1.0
  H  H61  1  0.21208000  0.07512000  0.87819000  1.0
  H  H62  1  0.79767000  0.16831000  0.36900000  1.0
  H  H63  1  0.20234000  0.83169000  0.86900000  1.0
  H  H64  1  0.68624000  0.11387000  0.42801000  1.0
  H  H65  1  0.31376000  0.88613000  0.92801000  1.0
  H  H66  1  0.84549000  0.18289000  0.44940000  1.0
  H  H67  1  0.15451000  0.81710000  0.94940000  1.0
  C  C68  1  0.17604000  0.72785000  0.52946000  1.0
  C  C69  1  0.82396000  0.27215000  0.02946000  1.0
  C  C70  1  0.12145000  0.66220000  0.47269000  1.0
  C  C71  1  0.87855000  0.33779000  0.97269000  1.0
  C  C72  1  0.44162000  0.50867000  0.70964000  1.0
  C  C73  1  0.55838000  0.49133000  0.20964000  1.0
  C  C74  1  0.55703000  0.59334000  0.68974000  1.0
  C  C75  1  0.44297000  0.40666000  0.18974000  1.0
  C  C76  1  0.20145000  0.23006000  0.53555000  1.0
  C  C77  1  0.79855000  0.76994000  0.03555000  1.0
  C  C78  1  0.32972000  0.16739000  0.52986000  1.0
  C  C79  1  0.67028000  0.83261000  0.02986000  1.0
  C  C80  1  0.93967000  0.01052000  0.66623000  1.0
  C  C81  1  0.06032000  0.98949000  0.16624000  1.0
  C  C82  1  0.05222000  0.09929000  0.68582000  1.0
  C  C83  1  0.94777000  0.90072000  0.18582000  1.0
  C  C84  1  0.33007000  0.78050000  0.34705000  1.0
  C  C85  1  0.66993000  0.21950000  0.84705000  1.0
  C  C86  1  0.39105000  0.84671000  0.40236000  1.0
  C  C87  1  0.60895000  0.15329000  0.90236000  1.0
  C  C88  1  0.29394000  0.27783000  0.33896000  1.0
  C  C89  1  0.70606000  0.72218000  0.83896000  1.0
  C  C90  1  0.16607000  0.34226000  0.33865000  1.0
  C  C91  1  0.83393000  0.65775000  0.83865000  1.0
  C  C92  1  0.50826000  0.49698000  0.48945000  1.0
  C  C93  1  0.49174000  0.50303000  0.98945000  1.0
  C  C94  1  0.64661000  0.48061000  0.46204000  1.0
  C  C95  1  0.35339000  0.51940000  0.96204000  1.0
  C  C96  1  0.75626000  0.51961000  0.50809000  1.0
  C  C97  1  0.24375000  0.48039000  0.00809000  1.0
  C  C98  1  0.98906000  0.99442000  0.38659000  1.0
  C  C99  1  0.01094000  0.00557000  0.88659000  1.0
  C  C100  1  0.84681000  0.98544000  0.41161000  1.0
  C  C101  1  0.15319000  0.01456000  0.91161000  1.0
  C  C102  1  0.79111000  0.12129000  0.41497000  1.0
  C  C103  1  0.20889000  0.87871000  0.91497000  1.0
  N  N104  1  0.15432000  0.84974000  0.54839000  1.0
  N  N105  1  0.84568000  0.15025000  0.04839000  1.0
  N  N106  1  0.22335000  0.87025000  0.60260000  1.0
  N  N107  1  0.77665000  0.12975000  0.10259000  1.0
  N  N108  1  0.28425000  0.76553000  0.61613000  1.0
  N  N109  1  0.71575000  0.23447000  0.11613000  1.0
  N  N110  1  0.25629000  0.67422000  0.57111000  1.0
  N  N111  1  0.74371000  0.32578000  0.07111000  1.0
  N  N112  1  0.34307000  0.46237000  0.67243000  1.0
  N  N113  1  0.65692000  0.53763000  0.17243000  1.0
  N  N114  1  0.25565000  0.39159000  0.70856000  1.0
  N  N115  1  0.74435000  0.60841000  0.20856000  1.0
  N  N116  1  0.29938000  0.39405000  0.76577000  1.0
  N  N117  1  0.70063000  0.60595000  0.26577000  1.0
  N  N118  1  0.41577000  0.46641000  0.76782000  1.0
  N  N119  1  0.58423000  0.53360000  0.26782000  1.0
  N  N120  1  0.18569000  0.35702000  0.54781000  1.0
  N  N121  1  0.81432000  0.64298000  0.04781000  1.0
  N  N122  1  0.05386000  0.37530000  0.54713000  1.0
  N  N123  1  0.94614000  0.62470000  0.04714000  1.0
  N  N124  1  0.99146000  0.26400000  0.53533000  1.0
  N  N125  1  0.00854000  0.73600000  0.03533000  1.0
  N  N126  1  0.08146000  0.17099000  0.52799000  1.0
  N  N127  1  0.91854000  0.82900000  0.02799000  1.0
  N  N128  1  0.84420000  0.95925000  0.70389000  1.0
  N  N129  1  0.15580000  0.04075000  0.20389000  1.0
  N  N130  1  0.75879000  0.88545000  0.66802000  1.0
  N  N131  1  0.24121000  0.11455000  0.16802000  1.0
  N  N132  1  0.80078000  0.89088000  0.61055000  1.0
  N  N133  1  0.19922000  0.10912000  0.11054000  1.0
  N  N134  1  0.91388000  0.96828000  0.60801000  1.0
  N  N135  1  0.08612000  0.03172000  0.10801000  1.0
  N  N136  1  0.24660000  0.83328000  0.30656000  1.0
  N  N137  1  0.75340000  0.16672000  0.80656000  1.0
  N  N138  1  0.21344000  0.74047000  0.26297000  1.0
  N  N139  1  0.78656000  0.25953000  0.76298000  1.0
  N  N140  1  0.27433000  0.63556000  0.27618000  1.0
  N  N141  1  0.72567000  0.36445000  0.77618000  1.0
  N  N142  1  0.34833000  0.65752000  0.32872000  1.0
  N  N143  1  0.65167000  0.34248000  0.82872000  1.0
  N  N144  1  0.31073000  0.15037000  0.32875000  1.0
  N  N145  1  0.68927000  0.84963000  0.82875000  1.0
  N  N146  1  0.44203000  0.13121000  0.33437000  1.0
  N  N147  1  0.55797000  0.86879000  0.83436000  1.0
  N  N148  1  0.50306000  0.24259000  0.34733000  1.0
  N  N149  1  0.49693000  0.75741000  0.84733000  1.0
  N  N150  1  0.41285000  0.33642000  0.35032000  1.0
  N  N151  1  0.58715000  0.66359000  0.85032000  1.0
  N  N152  1  0.65552000  0.55136000  0.40177000  1.0
  N  N153  1  0.34448000  0.44864000  0.90177000  1.0
  N  N154  1  0.84711000  0.92431000  0.47429000  1.0
  N  N155  1  0.15289000  0.07568000  0.97429000  1.0
  O  O156  1  0.41910000  0.53957000  0.45501000  1.0
  O  O157  1  0.58091000  0.46044000  0.95501000  1.0
  O  O158  1  0.49281000  0.46366000  0.54668000  1.0
  O  O159  1  0.50719000  0.53634000  0.04668000  1.0
  O  O160  1  0.08365000  0.97359000  0.42289000  1.0
  O  O161  1  0.91635000  0.02641000  0.92289000  1.0
  O  O162  1  0.00126000  0.02440000  0.32877000  1.0
  O  O163  1  0.99874000  0.97560000  0.82877000  1.0
