# generated using pymatgen
data_Zr6H22C51(Br5O16)2
_symmetry_space_group_name_H-M   'P 1'
_cell_length_a   14.78620000
_cell_length_b   14.79577431
_cell_length_c   14.80030000
_cell_angle_alpha   90.27400158
_cell_angle_beta   119.78710000
_cell_angle_gamma   119.74169488
_symmetry_Int_Tables_number   1
_chemical_formula_structural   Zr6H22C51(Br5O16)2
_chemical_formula_sum   'Zr6 H22 C51 Br10 O32'
_cell_volume   2300.34117269
_cell_formula_units_Z   1
loop_
 _symmetry_equiv_pos_site_id
 _symmetry_equiv_pos_as_xyz
  1  'x, y, z'
loop_
 _atom_site_type_symbol
 _atom_site_label
 _atom_site_symmetry_multiplicity
 _atom_site_fract_x
 _atom_site_fract_y
 _atom_site_fract_z
 _atom_site_occupancy
  Zr  Zr0  1  0.49101000  0.61503000  0.11515000  1.0
  Zr  Zr1  1  0.50653000  0.38426000  0.88453000  1.0
  Zr  Zr2  1  0.73686000  0.62221000  0.12247000  1.0
  Zr  Zr3  1  0.25979000  0.37579000  0.87586000  1.0
  Zr  Zr4  1  0.49824000  0.38025000  0.11878000  1.0
  Zr  Zr5  1  0.49849000  0.61877000  0.88040000  1.0
  H  H6  1  0.67975000  0.59385000  0.28092000  1.0
  H  H7  1  0.31738000  0.21806000  0.90519000  1.0
  H  H8  1  0.69231000  0.59897000  0.91162000  1.0
  H  H9  1  0.30479000  0.58775000  0.89980000  1.0
  H  H10  1  0.53374000  0.38346000  0.42141000  1.0
  H  H11  1  0.44868000  0.60832000  0.57057000  1.0
  H  H12  1  0.55352000  0.93106000  0.89407000  1.0
  H  H13  1  0.46793000  0.07983000  0.11864000  1.0
  H  H14  1  0.95513000  0.09752000  0.86666000  1.0
  H  H15  1  0.04193000  0.91179000  0.14293000  1.0
  H  H16  1  0.95506000  0.35555000  0.58713000  1.0
  H  H17  1  0.04114000  0.63058000  0.40014000  1.0
  H  H18  1  0.04455000  0.90940000  0.40090000  1.0
  H  H19  1  0.71210000  0.97482000  0.38446000  1.0
  H  H20  1  0.71385000  0.88965000  0.46901000  1.0
  H  H21  1  0.89622000  0.05888000  0.63872000  1.0
  H  H22  1  0.89471000  0.14419000  0.55415000  1.0
  H  H23  1  0.23035000  0.62720000  0.13610000  1.0
  H  H24  1  0.76678000  0.36279000  0.87115000  1.0
  H  H25  1  0.27147000  0.09619000  0.50570000  1.0
  H  H26  1  0.33641000  0.14690000  0.64729000  1.0
  H  H27  1  0.26450000  0.00579000  0.58359000  1.0
  C  C28  1  0.48134000  0.49538000  0.29425000  1.0
  C  C29  1  0.51722000  0.20560000  0.00486000  1.0
  C  C30  1  0.50338000  0.49780000  0.69871000  1.0
  C  C31  1  0.49599000  0.80145000  0.00262000  1.0
  C  C32  1  0.79432000  0.80547000  0.29847000  1.0
  C  C33  1  0.18377000  0.48377000  0.99117000  1.0
  C  C34  1  0.20400000  0.19961000  0.69315000  1.0
  C  C35  1  0.81336000  0.50732000  0.01490000  1.0
  C  C36  1  0.79701000  0.49446000  0.30253000  1.0
  C  C37  1  0.79753000  0.81032000  0.00316000  1.0
  C  C38  1  0.19944000  0.49497000  0.68799000  1.0
  C  C39  1  0.19947000  0.19610000  0.00380000  1.0
  C  C40  1  0.50051000  0.49443000  0.59604000  1.0
  C  C41  1  0.48253000  0.49780000  0.39616000  1.0
  C  C42  1  0.52577000  0.43096000  0.55366000  1.0
  C  C43  1  0.45931000  0.56266000  0.43952000  1.0
  C  C44  1  0.51505000  0.43267000  0.45496000  1.0
  C  C45  1  0.46782000  0.55942000  0.53720000  1.0
  C  C46  1  0.51867000  0.10496000  0.00405000  1.0
  C  C47  1  0.50129000  0.90528000  0.00762000  1.0
  C  C48  1  0.54330000  0.06229000  0.94015000  1.0
  C  C49  1  0.47722000  0.94817000  0.07195000  1.0
  C  C50  1  0.53444000  0.96440000  0.94303000  1.0
  C  C51  1  0.48688000  0.04643000  0.06959000  1.0
  C  C52  1  0.89628000  0.91110000  0.00021000  1.0
  C  C53  1  0.10077000  0.09776000  0.00897000  1.0
  C  C54  1  0.87196000  0.96442000  0.92111000  1.0
  C  C55  1  0.12514000  0.04451000  0.08812000  1.0
  C  C56  1  0.97328000  0.05573000  0.92706000  1.0
  C  C57  1  0.02381000  0.95355000  0.08249000  1.0
  C  C58  1  0.89575000  0.48888000  0.40055000  1.0
  C  C59  1  0.10050000  0.49751000  0.58698000  1.0
  C  C60  1  0.87157000  0.40990000  0.45401000  1.0
  C  C61  1  0.12459000  0.57608000  0.53314000  1.0
  C  C62  1  0.97304000  0.41560000  0.54496000  1.0
  C  C63  1  0.02317000  0.57035000  0.44210000  1.0
  C  C64  1  0.89665000  0.90650000  0.39753000  1.0
  C  C65  1  0.10459000  0.09989000  0.59207000  1.0
  C  C66  1  0.87485000  0.96118000  0.45286000  1.0
  C  C67  1  0.12868000  0.04443000  0.53684000  1.0
  C  C68  1  0.97618000  0.05464000  0.54676000  1.0
  C  C69  1  0.02489000  0.95098000  0.44229000  1.0
  C  C70  1  0.77418000  0.96185000  0.45569000  1.0
  C  C71  1  0.88857000  0.06786000  0.56203000  1.0
  C  C72  1  0.91409000  0.50589000  0.01488000  1.0
  C  C73  1  0.08297000  0.48367000  0.99265000  1.0
  C  C74  1  0.04686000  0.58182000  0.09068000  1.0
  C  C75  1  0.95020000  0.40801000  0.91661000  1.0
  C  C76  1  0.12769000  0.56931000  0.07835000  1.0
  C  C77  1  0.86940000  0.42036000  0.92912000  1.0
  C  C78  1  0.25835000  0.07640000  0.57167000  1.0
  Br  Br79  1  0.58179000  0.34421000  0.62391000  1.0
  Br  Br80  1  0.41260000  0.65597000  0.37374000  1.0
  Br  Br81  1  0.59288000  0.12952000  0.84899000  1.0
  Br  Br82  1  0.42473000  0.87945000  0.16116000  1.0
  Br  Br83  1  0.70787000  0.92213000  0.80167000  1.0
  Br  Br84  1  0.28922000  0.08528000  0.20601000  1.0
  Br  Br85  1  0.70766000  0.29196000  0.41335000  1.0
  Br  Br86  1  0.28854000  0.69401000  0.57393000  1.0
  Br  Br87  1  0.12917000  0.70477000  0.21219000  1.0
  Br  Br88  1  0.86791000  0.28659000  0.79352000  1.0
  O  O89  1  0.48271000  0.57175000  0.25433000  1.0
  O  O90  1  0.51471000  0.24473000  0.92781000  1.0
  O  O91  1  0.50614000  0.42360000  0.74080000  1.0
  O  O92  1  0.49262000  0.75881000  0.07638000  1.0
  O  O93  1  0.83123000  0.76394000  0.25939000  1.0
  O  O94  1  0.14965000  0.40942000  0.91438000  1.0
  O  O95  1  0.16331000  0.23587000  0.73254000  1.0
  O  O96  1  0.84749000  0.58408000  0.08928000  1.0
  O  O97  1  0.68065000  0.42076000  0.26296000  1.0
  O  O98  1  0.68105000  0.76789000  0.92680000  1.0
  O  O99  1  0.31576000  0.57194000  0.73097000  1.0
  O  O100  1  0.31587000  0.23634000  0.07821000  1.0
  O  O101  1  0.83737000  0.77295000  0.08066000  1.0
  O  O102  1  0.15977000  0.41706000  0.72504000  1.0
  O  O103  1  0.15975000  0.23180000  0.92461000  1.0
  O  O104  1  0.83670000  0.57330000  0.26653000  1.0
  O  O105  1  0.67861000  0.76566000  0.25988000  1.0
  O  O106  1  0.69855000  0.43050000  0.93751000  1.0
  O  O107  1  0.32171000  0.24344000  0.73643000  1.0
  O  O108  1  0.29853000  0.56130000  0.06797000  1.0
  O  O109  1  0.49567000  0.76345000  0.92480000  1.0
  O  O110  1  0.48338000  0.41895000  0.25707000  1.0
  O  O111  1  0.51393000  0.24232000  0.08054000  1.0
  O  O112  1  0.50212000  0.57474000  0.73618000  1.0
  O  O113  1  0.35915000  0.56187000  0.92737000  1.0
  O  O114  1  0.63771000  0.57133000  0.93721000  1.0
  O  O115  1  0.36911000  0.29808000  0.93297000  1.0
  O  O116  1  0.62769000  0.56617000  0.20087000  1.0
  O  O117  1  0.60103000  0.45314000  0.05274000  1.0
  O  O118  1  0.39580000  0.44650000  0.04535000  1.0
  O  O119  1  0.40291000  0.45025000  0.85117000  1.0
  O  O120  1  0.59414000  0.64799000  0.04892000  1.0
