# generated using pymatgen
data_HgH16C18N2(ClO3)2
_symmetry_space_group_name_H-M   'P 1'
_cell_length_a   7.50178000
_cell_length_b   8.84888000
_cell_length_c   15.52391702
_cell_angle_alpha   92.19661088
_cell_angle_beta   103.95633721
_cell_angle_gamma   90.00280000
_symmetry_Int_Tables_number   1
_chemical_formula_structural   HgH16C18N2(ClO3)2
_chemical_formula_sum   'Hg2 H32 C36 N4 Cl4 O12'
_cell_volume   999.31235992
_cell_formula_units_Z   2
loop_
 _symmetry_equiv_pos_site_id
 _symmetry_equiv_pos_as_xyz
  1  'x, y, z'
loop_
 _atom_site_type_symbol
 _atom_site_label
 _atom_site_symmetry_multiplicity
 _atom_site_fract_x
 _atom_site_fract_y
 _atom_site_fract_z
 _atom_site_occupancy
  Hg  Hg0  1  0.23302000  0.00007000  0.00009000  1.0
  Hg  Hg1  1  0.73991000  0.49993000  0.00003000  1.0
  H  H2  1  0.37973000  0.03672000  0.82390000  1.0
  H  H3  1  0.55619000  0.96330000  0.17613000  1.0
  H  H4  1  0.40422000  0.60405000  0.68878000  1.0
  H  H5  1  0.71582000  0.39598000  0.31124000  1.0
  H  H6  1  0.92073000  0.82952000  0.67684000  1.0
  H  H7  1  0.24406000  0.17050000  0.32305000  1.0
  H  H8  1  0.86742000  0.98095000  0.81120000  1.0
  H  H9  1  0.05646000  0.01907000  0.18874000  1.0
  H  H10  1  0.87387000  0.42417000  0.81572000  1.0
  H  H11  1  0.05823000  0.57585000  0.18426000  1.0
  H  H12  1  0.30626000  0.64888000  0.95207000  1.0
  H  H13  1  0.35438000  0.35118000  0.04812000  1.0
  H  H14  1  0.34820000  0.48004000  0.82313000  1.0
  H  H15  1  0.52530000  0.51999000  0.17701000  1.0
  H  H16  1  0.08394000  0.12624000  0.70450000  1.0
  H  H17  1  0.38006000  0.87386000  0.29543000  1.0
  H  H18  1  0.87266000  0.06547000  0.62867000  1.0
  H  H19  1  0.24441000  0.93450000  0.37126000  1.0
  H  H20  1  0.86503000  0.29408000  0.54403000  1.0
  H  H21  1  0.32106000  0.70582000  0.45579000  1.0
  H  H22  1  0.20202000  0.12517000  0.47657000  1.0
  H  H23  1  0.72549000  0.87483000  0.52340000  1.0
  H  H24  1  0.14061000  0.38262000  0.51349000  1.0
  H  H25  1  0.62709000  0.61741000  0.48653000  1.0
  H  H26  1  0.50714000  0.08676000  0.55770000  1.0
  H  H27  1  0.94968000  0.91325000  0.44232000  1.0
  H  H28  1  0.81704000  0.83679000  0.93998000  1.0
  H  H29  1  0.87738000  0.16321000  0.06001000  1.0
  H  H30  1  0.57533000  0.31335000  0.69236000  1.0
  H  H31  1  0.88358000  0.68656000  0.30770000  1.0
  H  H32  1  0.51727000  0.36114000  0.57655000  1.0
  H  H33  1  0.94110000  0.63889000  0.42353000  1.0
  C  C34  1  0.43085000  0.90173000  0.66710000  1.0
  C  C35  1  0.76409000  0.09823000  0.33290000  1.0
  C  C36  1  0.93263000  0.53024000  0.65741000  1.0
  C  C37  1  0.27548000  0.46976000  0.34247000  1.0
  C  C38  1  0.37587000  0.91335000  0.82109000  1.0
  C  C39  1  0.55510000  0.08668000  0.17897000  1.0
  C  C40  1  0.40134000  0.82884000  0.74705000  1.0
  C  C41  1  0.65468000  0.17114000  0.25299000  1.0
  C  C42  1  0.90082000  0.61717000  0.73615000  1.0
  C  C43  1  0.16487000  0.38287000  0.26377000  1.0
  C  C44  1  0.39102000  0.67115000  0.74708000  1.0
  C  C45  1  0.64426000  0.32883000  0.25298000  1.0
  C  C46  1  0.89776000  0.77522000  0.73506000  1.0
  C  C47  1  0.16289000  0.22482000  0.26486000  1.0
  C  C48  1  0.86808000  0.85770000  0.80832000  1.0
  C  C49  1  0.05997000  0.14234000  0.19163000  1.0
  C  C50  1  0.87313000  0.54695000  0.81125000  1.0
  C  C51  1  0.06205000  0.45308000  0.18872000  1.0
  C  C52  1  0.33489000  0.69470000  0.89241000  1.0
  C  C53  1  0.44270000  0.30534000  0.10774000  1.0
  C  C54  1  0.35754000  0.60262000  0.82095000  1.0
  C  C55  1  0.53687000  0.39739000  0.17918000  1.0
  C  C56  1  0.00477000  0.12327000  0.63456000  1.0
  C  C57  1  0.37064000  0.87674000  0.36536000  1.0
  C  C58  1  0.98312000  0.28373000  0.60110000  1.0
  C  C59  1  0.38233000  0.71625000  0.39878000  1.0
  C  C60  1  0.21689000  0.14756000  0.54784000  1.0
  C  C61  1  0.66928000  0.85240000  0.45213000  1.0
  C  C62  1  0.16008000  0.30913000  0.57027000  1.0
  C  C63  1  0.59004000  0.69084000  0.42972000  1.0
  C  C64  1  0.42341000  0.13894000  0.59947000  1.0
  C  C65  1  0.82430000  0.86105000  0.40052000  1.0
  C  C66  1  0.84196000  0.77893000  0.88060000  1.0
  C  C67  1  0.96161000  0.22109000  0.11937000  1.0
  C  C68  1  0.47159000  0.30242000  0.62907000  1.0
  C  C69  1  0.84300000  0.69757000  0.37098000  1.0
  N  N70  1  0.34351000  0.84644000  0.89171000  1.0
  N  N71  1  0.45207000  0.15359000  0.10841000  1.0
  N  N72  1  0.84455000  0.62722000  0.88154000  1.0
  N  N73  1  0.96321000  0.37281000  0.11846000  1.0
  Cl  Cl74  1  0.71243000  0.72398000  0.08897000  1.0
  Cl  Cl75  1  0.62355000  0.27590000  0.91109000  1.0
  Cl  Cl76  1  0.20711000  0.79719000  0.09692000  1.0
  Cl  Cl77  1  0.11033000  0.20284000  0.90319000  1.0
  O  O78  1  0.43720000  0.05442000  0.67841000  1.0
  O  O79  1  0.75930000  0.94554000  0.32156000  1.0
  O  O80  1  0.44936000  0.83259000  0.60001000  1.0
  O  O81  1  0.84952000  0.16738000  0.40001000  1.0
  O  O82  1  0.93382000  0.58595000  0.58649000  1.0
  O  O83  1  0.34748000  0.41408000  0.41337000  1.0
  O  O84  1  0.09951000  0.04325000  0.57716000  1.0
  O  O85  1  0.52265000  0.95673000  0.42281000  1.0
  O  O86  1  0.95941000  0.38204000  0.67372000  1.0
  O  O87  1  0.28626000  0.61793000  0.32610000  1.0
  O  O88  1  0.30402000  0.36702000  0.64240000  1.0
  O  O89  1  0.66215000  0.63285000  0.35767000  1.0
