# generated using pymatgen
data_Al6H37C67NO29
_symmetry_space_group_name_H-M   'P 1'
_cell_length_a   12.55380000
_cell_length_b   12.62160000
_cell_length_c   26.86650000
_cell_angle_alpha   83.04630000
_cell_angle_beta   83.28250000
_cell_angle_gamma   62.77230000
_symmetry_Int_Tables_number   1
_chemical_formula_structural   Al6H37C67NO29
_chemical_formula_sum   'Al6 H37 C67 N1 O29'
_cell_volume   3748.27899001
_cell_formula_units_Z   1
loop_
 _symmetry_equiv_pos_site_id
 _symmetry_equiv_pos_as_xyz
  1  'x, y, z'
loop_
 _atom_site_type_symbol
 _atom_site_label
 _atom_site_symmetry_multiplicity
 _atom_site_fract_x
 _atom_site_fract_y
 _atom_site_fract_z
 _atom_site_occupancy
  Al  Al0  1  0.59691000  0.59423000  0.48949000  1.0
  Al  Al1  1  0.57633000  0.34740000  0.50453000  1.0
  Al  Al2  1  0.34753000  0.57738000  0.50287000  1.0
  Al  Al3  1  0.06492000  0.07055000  0.01975000  1.0
  Al  Al4  1  0.31588000  0.08414000  0.00494000  1.0
  Al  Al5  1  0.08844000  0.31581000  0.00637000  1.0
  H  H6  1  0.37151000  0.63296000  0.73116000  1.0
  H  H7  1  0.35954000  0.66410000  0.81563000  1.0
  H  H8  1  0.46840000  0.89079000  0.78444000  1.0
  H  H9  1  0.76501000  0.52548000  0.79423000  1.0
  H  H10  1  0.73518000  0.53276000  0.70909000  1.0
  H  H11  1  0.00685000  0.23871000  0.69635000  1.0
  H  H12  1  0.95508000  0.39509000  0.69120000  1.0
  H  H13  1  0.98625000  0.38798000  0.77604000  1.0
  H  H14  1  0.03807000  0.23165000  0.78111000  1.0
  H  H15  1  0.70578000  0.24780000  0.73326000  1.0
  H  H16  1  0.21732000  0.73192000  0.72849000  1.0
  H  H17  1  0.85966000  0.15213000  0.72102000  1.0
  H  H18  1  0.73714000  0.24018000  0.81815000  1.0
  H  H19  1  0.63174000  0.47357000  0.72612000  1.0
  H  H20  1  0.66274000  0.46477000  0.81107000  1.0
  H  H21  1  0.89089000  0.14458000  0.80615000  1.0
  H  H22  1  0.25888000  0.50589000  0.19714000  1.0
  H  H23  1  0.27259000  0.52640000  0.28113000  1.0
  H  H24  1  0.22967000  0.25221000  0.32029000  1.0
  H  H25  1  0.15419000  0.40936000  0.30954000  1.0
  H  H26  1  0.13929000  0.38940000  0.22559000  1.0
  H  H27  1  0.25607000  0.00883000  0.69170000  1.0
  H  H28  1  0.21444000  0.23238000  0.23658000  1.0
  H  H29  1  0.54038000  0.22296000  0.28876000  1.0
  H  H30  1  0.45591000  0.14302000  0.30744000  1.0
  H  H31  1  0.52456000  0.21275000  0.20465000  1.0
  H  H32  1  0.43074000  0.45106000  0.27254000  1.0
  H  H33  1  0.41689000  0.42980000  0.18875000  1.0
  H  H34  1  0.14970000  0.95225000  0.70455000  1.0
  H  H35  1  0.13551000  0.98845000  0.78954000  1.0
  H  H36  1  0.24600000  0.03850000  0.77675000  1.0
  H  H37  1  0.52676000  0.71551000  0.71169000  1.0
  H  H38  1  0.47678000  0.87046000  0.69822000  1.0
  H  H39  1  0.50933000  0.73748000  0.79806000  1.0
  H  H40  1  0.11532000  0.82469000  0.80498000  1.0
  H  H41  1  0.71761000  0.67809000  0.44754000  1.0
  H  H42  1  0.97380000  0.95678000  0.06213000  1.0
  C  C43  1  0.71697000  0.38510000  0.56455000  1.0
  C  C44  1  0.33178000  0.34328000  0.73158000  1.0
  C  C45  1  0.34587000  0.35724000  0.68126000  1.0
  C  C46  1  0.36018000  0.37016000  0.63531000  1.0
  C  C47  1  0.30309000  0.72366000  0.73888000  1.0
  C  C48  1  0.23510000  0.94310000  0.71581000  1.0
  C  C49  1  0.22655000  0.96398000  0.77200000  1.0
  C  C50  1  0.29813000  0.89950000  0.89648000  1.0
  C  C51  1  0.33471000  0.81612000  0.70579000  1.0
  C  C52  1  0.29186000  0.74304000  0.79553000  1.0
  C  C53  1  0.31752000  0.85058000  0.80124000  1.0
  C  C54  1  0.38775000  0.39382000  0.58280000  1.0
  C  C55  1  0.44616000  0.81932000  0.77775000  1.0
  C  C56  1  0.45531000  0.80356000  0.72105000  1.0
  C  C57  1  0.30727000  0.87391000  0.85350000  1.0
  C  C58  1  0.34472000  0.79378000  0.65340000  1.0
  C  C59  1  0.35763000  0.76908000  0.61007000  1.0
  C  C60  1  0.72339000  0.45891000  0.73087000  1.0
  C  C61  1  0.94268000  0.32175000  0.71314000  1.0
  C  C62  1  0.96328000  0.31706000  0.76920000  1.0
  C  C63  1  0.89472000  0.31209000  0.89845000  1.0
  C  C64  1  0.81360000  0.34020000  0.70803000  1.0
  C  C65  1  0.38707000  0.71780000  0.56249000  1.0
  C  C66  1  0.74365000  0.45372000  0.78699000  1.0
  C  C67  1  0.84845000  0.33189000  0.80267000  1.0
  C  C68  1  0.81728000  0.23053000  0.79386000  1.0
  C  C69  1  0.79666000  0.23549000  0.73787000  1.0
  C  C70  1  0.87111000  0.32454000  0.85489000  1.0
  C  C71  1  0.79150000  0.34712000  0.65576000  1.0
  C  C72  1  0.76750000  0.35616000  0.61245000  1.0
  C  C73  1  0.34817000  0.44452000  0.26801000  1.0
  C  C74  1  0.23036000  0.32843000  0.29599000  1.0
  C  C75  1  0.22039000  0.31511000  0.24038000  1.0
  C  C76  1  0.71540000  0.38548000  0.42303000  1.0
  C  C77  1  0.30879000  0.29210000  0.11189000  1.0
  C  C78  1  0.34826000  0.33563000  0.30180000  1.0
  C  C79  1  0.33886000  0.43088000  0.21237000  1.0
  C  C80  1  0.33084000  0.31383000  0.20732000  1.0
  C  C81  1  0.44802000  0.20786000  0.22753000  1.0
  C  C82  1  0.45601000  0.22039000  0.28394000  1.0
  C  C83  1  0.31996000  0.30220000  0.15521000  1.0
  C  C84  1  0.35730000  0.34894000  0.35390000  1.0
  C  C85  1  0.36563000  0.36129000  0.39731000  1.0
  C  C86  1  0.30401000  0.89291000  0.13605000  1.0
  C  C87  1  0.38784000  0.38713000  0.44448000  1.0
  C  C88  1  0.31522000  0.86429000  0.18112000  1.0
  C  C89  1  0.32644000  0.83593000  0.23050000  1.0
  C  C90  1  0.33570000  0.81346000  0.27620000  1.0
  C  C91  1  0.34860000  0.78762000  0.32560000  1.0
  C  C92  1  0.36166000  0.76189000  0.37073000  1.0
  C  C93  1  0.90038000  0.30509000  0.13826000  1.0
  C  C94  1  0.87277000  0.31642000  0.18331000  1.0
  C  C95  1  0.84493000  0.32724000  0.23267000  1.0
  C  C96  1  0.82171000  0.33529000  0.27836000  1.0
  C  C97  1  0.79388000  0.34610000  0.32773000  1.0
  C  C98  1  0.39014000  0.71197000  0.42112000  1.0
  C  C99  1  0.76636000  0.35722000  0.37279000  1.0
  C  C100  1  0.27135000  0.94938000  0.94430000  1.0
  C  C101  1  0.27262000  0.27286000  0.92678000  1.0
  C  C102  1  0.94432000  0.28181000  0.94658000  1.0
  C  C103  1  0.27522000  0.94606000  0.08604000  1.0
  C  C104  1  0.28180000  0.26972000  0.06492000  1.0
  C  C105  1  0.95139000  0.27665000  0.08802000  1.0
  C  C106  1  0.29640000  0.29997000  0.87421000  1.0
  C  C107  1  0.30798000  0.31535000  0.82826000  1.0
  C  C108  1  0.32049000  0.33073000  0.77794000  1.0
  C  C109  1  0.45324000  0.09279000  0.22074000  1.0
  N  N110  1  0.45655000  0.00058000  0.21637000  1.0
  O  O111  1  0.48942000  0.69492000  0.54114000  1.0
  O  O112  1  0.48427000  0.31171000  0.46477000  1.0
  O  O113  1  0.31293000  0.48663000  0.46195000  1.0
  O  O114  1  0.30947000  0.69006000  0.44821000  1.0
  O  O115  1  0.50582000  0.50489000  0.49872000  1.0
  O  O116  1  0.96483000  0.18032000  0.96793000  1.0
  O  O117  1  0.16871000  0.97454000  0.96576000  1.0
  O  O118  1  0.35337000  0.96906000  0.96054000  1.0
  O  O119  1  0.34760000  0.17311000  0.94671000  1.0
  O  O120  1  0.17572000  0.34847000  0.94815000  1.0
  O  O121  1  0.96871000  0.35979000  0.96314000  1.0
  O  O122  1  0.69272000  0.48768000  0.54358000  1.0
  O  O123  1  0.97103000  0.17599000  0.07543000  1.0
  O  O124  1  0.17292000  0.96843000  0.07319000  1.0
  O  O125  1  0.35467000  0.97035000  0.05939000  1.0
  O  O126  1  0.35495000  0.17218000  0.04558000  1.0
  O  O127  1  0.18287000  0.34656000  0.04694000  1.0
  O  O128  1  0.97648000  0.35545000  0.06142000  1.0
  O  O129  1  0.15762000  0.15830000  0.01060000  1.0
  O  O130  1  0.69566000  0.30519000  0.54775000  1.0
  O  O131  1  0.48757000  0.31821000  0.56331000  1.0
  O  O132  1  0.31284000  0.49080000  0.56097000  1.0
  O  O133  1  0.30730000  0.69448000  0.54658000  1.0
  O  O134  1  0.49230000  0.68968000  0.43392000  1.0
  O  O135  1  0.69765000  0.48527000  0.43611000  1.0
  O  O136  1  0.68829000  0.30770000  0.44928000  1.0
  O  O137  1  0.18072000  0.75431000  0.81997000  1.0
  O  O138  1  0.68051000  0.67477000  0.48092000  1.0
  O  O139  1  0.97855000  0.99289000  0.02864000  1.0
