# generated using pymatgen
data_CoH15C15N2O5
_symmetry_space_group_name_H-M   'P 1'
_cell_length_a   8.15344000
_cell_length_b   14.52940000
_cell_length_c   15.67720000
_cell_angle_alpha   89.99870000
_cell_angle_beta   103.34900000
_cell_angle_gamma   89.99870000
_symmetry_Int_Tables_number   1
_chemical_formula_structural   CoH15C15N2O5
_chemical_formula_sum   'Co4 H60 C60 N8 O20'
_cell_volume   1807.01502766
_cell_formula_units_Z   4
loop_
 _symmetry_equiv_pos_site_id
 _symmetry_equiv_pos_as_xyz
  1  'x, y, z'
loop_
 _atom_site_type_symbol
 _atom_site_label
 _atom_site_symmetry_multiplicity
 _atom_site_fract_x
 _atom_site_fract_y
 _atom_site_fract_z
 _atom_site_occupancy
  Co  Co0  1  0.16544000  0.91338000  0.61180000  1.0
  Co  Co1  1  0.33455000  0.41339000  0.38820000  1.0
  Co  Co2  1  0.83456000  0.08664000  0.38822000  1.0
  Co  Co3  1  0.66545000  0.58661000  0.61179000  1.0
  H  H4  1  0.40885000  0.83512000  0.71958000  1.0
  H  H5  1  0.09103000  0.33515000  0.28040000  1.0
  H  H6  1  0.59110000  0.16491000  0.28042000  1.0
  H  H7  1  0.90899000  0.66484000  0.71958000  1.0
  H  H8  1  0.50414000  0.88717000  0.65822000  1.0
  H  H9  1  0.99582000  0.38724000  0.34176000  1.0
  H  H10  1  0.49577000  0.11282000  0.34174000  1.0
  H  H11  1  0.00420000  0.61275000  0.65824000  1.0
  H  H12  1  0.39250000  0.69113000  0.34412000  1.0
  H  H13  1  0.10744000  0.19114000  0.65587000  1.0
  H  H14  1  0.60758000  0.30891000  0.65591000  1.0
  H  H15  1  0.89248000  0.80887000  0.34410000  1.0
  H  H16  1  0.27783000  0.95814000  0.43667000  1.0
  H  H17  1  0.22208000  0.45815000  0.56332000  1.0
  H  H18  1  0.72221000  0.04188000  0.56335000  1.0
  H  H19  1  0.77792000  0.54185000  0.43669000  1.0
  H  H20  1  0.32909000  0.94509000  0.29174000  1.0
  H  H21  1  0.17085000  0.44510000  0.70825000  1.0
  H  H22  1  0.67093000  0.05493000  0.70826000  1.0
  H  H23  1  0.82912000  0.55489000  0.29176000  1.0
  H  H24  1  0.52818000  0.89602000  0.32745000  1.0
  H  H25  1  0.97176000  0.39605000  0.67256000  1.0
  H  H26  1  0.47183000  0.10400000  0.67254000  1.0
  H  H27  1  0.02821000  0.60395000  0.32744000  1.0
  H  H28  1  0.44255000  0.75997000  0.22639000  1.0
  H  H29  1  0.05743000  0.25998000  0.77362000  1.0
  H  H30  1  0.55746000  0.24005000  0.77362000  1.0
  H  H31  1  0.94255000  0.74001000  0.22638000  1.0
  H  H32  1  0.40552000  0.86482000  0.16748000  1.0
  H  H33  1  0.09445000  0.36481000  0.83252000  1.0
  H  H34  1  0.59448000  0.13518000  0.83252000  1.0
  H  H35  1  0.90552000  0.63516000  0.16747000  1.0
  H  H36  1  0.23432000  0.80431000  0.19394000  1.0
  H  H37  1  0.26564000  0.30432000  0.80604000  1.0
  H  H38  1  0.76571000  0.19570000  0.80607000  1.0
  H  H39  1  0.73431000  0.69567000  0.19394000  1.0
  H  H40  1  0.87676000  0.88755000  0.69388000  1.0
  H  H41  1  0.62326000  0.38756000  0.30613000  1.0
  H  H42  1  0.12322000  0.11244000  0.30612000  1.0
  H  H43  1  0.37680000  0.61242000  0.69384000  1.0
  H  H44  1  0.78894000  0.92835000  0.83067000  1.0
  H  H45  1  0.71106000  0.42835000  0.16932000  1.0
  H  H46  1  0.21100000  0.07165000  0.16932000  1.0
  H  H47  1  0.28899000  0.57165000  0.83065000  1.0
  H  H48  1  0.23643000  0.09721000  0.90138000  1.0
  H  H49  1  0.26354000  0.59720000  0.09858000  1.0
  H  H50  1  0.76350000  0.90279000  0.09865000  1.0
  H  H51  1  0.73650000  0.40278000  0.90137000  1.0
  H  H52  1  0.30796000  0.04603000  0.76154000  1.0
  H  H53  1  0.19202000  0.54605000  0.23844000  1.0
  H  H54  1  0.69200000  0.95398000  0.23849000  1.0
  H  H55  1  0.80803000  0.45395000  0.76152000  1.0
  H  H56  1  0.82761000  0.04167000  0.95692000  1.0
  H  H57  1  0.67237000  0.54167000  0.04305000  1.0
  H  H58  1  0.17231000  0.95831000  0.04309000  1.0
  H  H59  1  0.32766000  0.45831000  0.95690000  1.0
  H  H60  1  0.01787000  0.10457000  0.98990000  1.0
  H  H61  1  0.48209000  0.60457000  0.01006000  1.0
  H  H62  1  0.98203000  0.89541000  0.01011000  1.0
  H  H63  1  0.51795000  0.39541000  0.98989000  1.0
  C  C64  1  0.23763000  0.75284000  0.51851000  1.0
  C  C65  1  0.26237000  0.25284000  0.48152000  1.0
  C  C66  1  0.76242000  0.24718000  0.48151000  1.0
  C  C67  1  0.73764000  0.74714000  0.51851000  1.0
  C  C68  1  0.29945000  0.69561000  0.46139000  1.0
  C  C69  1  0.20054000  0.19562000  0.53864000  1.0
  C  C70  1  0.70061000  0.30441000  0.53864000  1.0
  C  C71  1  0.79945000  0.80437000  0.46139000  1.0
  C  C72  1  0.34664000  0.73572000  0.38954000  1.0
  C  C73  1  0.15330000  0.23574000  0.61047000  1.0
  C  C74  1  0.65343000  0.26430000  0.61050000  1.0
  C  C75  1  0.84663000  0.76426000  0.38952000  1.0
  C  C76  1  0.33860000  0.83099000  0.37766000  1.0
  C  C77  1  0.16133000  0.33101000  0.62235000  1.0
  C  C78  1  0.66145000  0.16902000  0.62236000  1.0
  C  C79  1  0.83862000  0.66898000  0.37766000  1.0
  C  C80  1  0.28330000  0.88328000  0.44088000  1.0
  C  C81  1  0.21664000  0.38329000  0.55914000  1.0
  C  C82  1  0.71677000  0.11674000  0.55914000  1.0
  C  C83  1  0.78334000  0.61670000  0.44089000  1.0
  C  C84  1  0.16248000  0.71770000  0.59133000  1.0
  C  C85  1  0.33751000  0.21772000  0.40868000  1.0
  C  C86  1  0.83751000  0.28233000  0.40866000  1.0
  C  C87  1  0.66250000  0.78227000  0.59135000  1.0
  C  C88  1  0.32654000  0.59403000  0.47562000  1.0
  C  C89  1  0.17344000  0.09405000  0.52440000  1.0
  C  C90  1  0.67351000  0.40598000  0.52437000  1.0
  C  C91  1  0.82655000  0.90595000  0.47564000  1.0
  C  C92  1  0.39380000  0.87841000  0.30373000  1.0
  C  C93  1  0.10615000  0.37843000  0.69628000  1.0
  C  C94  1  0.60622000  0.12160000  0.69629000  1.0
  C  C95  1  0.89381000  0.62157000  0.30372000  1.0
  C  C96  1  0.36742000  0.82357000  0.21847000  1.0
  C  C97  1  0.13254000  0.32358000  0.78152000  1.0
  C  C98  1  0.63260000  0.17645000  0.78155000  1.0
  C  C99  1  0.86741000  0.67641000  0.21846000  1.0
  C  C100  1  0.95503000  0.93184000  0.74274000  1.0
  C  C101  1  0.54498000  0.43186000  0.25726000  1.0
  C  C102  1  0.04494000  0.06815000  0.25727000  1.0
  C  C103  1  0.45507000  0.56813000  0.74271000  1.0
  C  C104  1  0.90668000  0.95574000  0.81920000  1.0
  C  C105  1  0.59332000  0.45575000  0.18080000  1.0
  C  C106  1  0.09327000  0.04425000  0.18081000  1.0
  C  C107  1  0.40674000  0.54424000  0.81917000  1.0
  C  C108  1  0.00774000  0.01538000  0.87934000  1.0
  C  C109  1  0.49225000  0.51539000  0.12065000  1.0
  C  C110  1  0.99220000  0.98462000  0.12067000  1.0
  C  C111  1  0.50780000  0.48460000  0.87933000  1.0
  C  C112  1  0.15386000  0.04938000  0.85773000  1.0
  C  C113  1  0.34613000  0.54939000  0.14225000  1.0
  C  C114  1  0.84610000  0.95061000  0.14229000  1.0
  C  C115  1  0.65391000  0.45059000  0.85771000  1.0
  C  C116  1  0.19459000  0.02185000  0.78011000  1.0
  C  C117  1  0.30541000  0.52186000  0.21987000  1.0
  C  C118  1  0.80538000  0.97815000  0.21991000  1.0
  C  C119  1  0.69463000  0.47812000  0.78009000  1.0
  C  C120  1  0.96518000  0.03737000  0.96528000  1.0
  C  C121  1  0.53480000  0.53737000  0.03469000  1.0
  C  C122  1  0.03475000  0.96261000  0.03471000  1.0
  C  C123  1  0.46523000  0.46260000  0.96528000  1.0
  N  N124  1  0.23329000  0.84532000  0.50857000  1.0
  N  N125  1  0.26667000  0.34532000  0.49146000  1.0
  N  N126  1  0.76675000  0.15470000  0.49143000  1.0
  N  N127  1  0.73331000  0.65466000  0.50859000  1.0
  N  N128  1  0.09760000  0.96335000  0.72341000  1.0
  N  N129  1  0.40241000  0.46338000  0.27659000  1.0
  N  N130  1  0.90239000  0.03664000  0.27662000  1.0
  N  N131  1  0.59763000  0.53661000  0.72338000  1.0
  O  O132  1  0.13964000  0.77764000  0.64793000  1.0
  O  O133  1  0.36029000  0.27767000  0.35207000  1.0
  O  O134  1  0.86026000  0.22240000  0.35204000  1.0
  O  O135  1  0.63977000  0.72231000  0.64795000  1.0
  O  O136  1  0.12330000  0.63383000  0.59217000  1.0
  O  O137  1  0.37673000  0.13385000  0.40784000  1.0
  O  O138  1  0.87672000  0.36618000  0.40783000  1.0
  O  O139  1  0.62328000  0.86612000  0.59219000  1.0
  O  O140  1  0.42420000  0.56612000  0.54592000  1.0
  O  O141  1  0.07585000  0.06614000  0.45408000  1.0
  O  O142  1  0.57584000  0.43388000  0.45407000  1.0
  O  O143  1  0.92415000  0.93384000  0.54595000  1.0
  O  O144  1  0.25427000  0.54256000  0.41236000  1.0
  O  O145  1  0.24568000  0.04257000  0.58769000  1.0
  O  O146  1  0.74581000  0.45751000  0.58761000  1.0
  O  O147  1  0.75430000  0.95746000  0.41239000  1.0
  O  O148  1  0.42208000  0.89681000  0.69756000  1.0
  O  O149  1  0.07785000  0.39685000  0.30239000  1.0
  O  O150  1  0.57782000  0.10320000  0.30239000  1.0
  O  O151  1  0.92217000  0.60314000  0.69759000  1.0
