# generated using pymatgen
data_CdH19C20N3O5
_symmetry_space_group_name_H-M   'P 1'
_cell_length_a   10.27540000
_cell_length_b   11.01930000
_cell_length_c   11.01940000
_cell_angle_alpha   97.93350000
_cell_angle_beta   108.29400000
_cell_angle_gamma   108.29300000
_symmetry_Int_Tables_number   1
_chemical_formula_structural   CdH19C20N3O5
_chemical_formula_sum   'Cd2 H38 C40 N6 O10'
_cell_volume   1085.36046768
_cell_formula_units_Z   2
loop_
 _symmetry_equiv_pos_site_id
 _symmetry_equiv_pos_as_xyz
  1  'x, y, z'
loop_
 _atom_site_type_symbol
 _atom_site_label
 _atom_site_symmetry_multiplicity
 _atom_site_fract_x
 _atom_site_fract_y
 _atom_site_fract_z
 _atom_site_occupancy
  Cd  Cd0  1  0.24039000  0.06907000  0.96626000  1.0
  Cd  Cd1  1  0.74039000  0.96626000  0.06907000  1.0
  H  H2  1  0.10970000  0.06070000  0.21159000  1.0
  H  H3  1  0.60969000  0.21159000  0.06069000  1.0
  H  H4  1  0.15416000  0.98944000  0.42161000  1.0
  H  H5  1  0.65413000  0.42160000  0.98941000  1.0
  H  H6  1  0.36432000  0.91209000  0.50116000  1.0
  H  H7  1  0.86430000  0.50115000  0.91207000  1.0
  H  H8  1  0.44886000  0.03496000  0.81142000  1.0
  H  H9  1  0.94886000  0.81140000  0.03495000  1.0
  H  H10  1  0.55860000  0.13329000  0.65703000  1.0
  H  H11  1  0.05860000  0.65700000  0.13328000  1.0
  H  H12  1  0.26923000  0.34937000  0.60786000  1.0
  H  H13  1  0.76924000  0.60785000  0.34936000  1.0
  H  H14  1  0.17958000  0.25175000  0.77010000  1.0
  H  H15  1  0.67958000  0.77009000  0.25173000  1.0
  H  H16  1  0.40572000  0.33960000  0.45650000  1.0
  H  H17  1  0.90573000  0.45649000  0.33960000  1.0
  H  H18  1  0.52430000  0.24949000  0.47626000  1.0
  H  H19  1  0.02431000  0.47626000  0.24950000  1.0
  H  H20  1  0.70168000  0.41820000  0.68995000  1.0
  H  H21  1  0.20168000  0.68994000  0.41819000  1.0
  H  H22  1  0.58661000  0.51016000  0.66875000  1.0
  H  H23  1  0.08662000  0.66876000  0.51016000  1.0
  H  H24  1  0.73955000  0.45087000  0.48261000  1.0
  H  H25  1  0.23956000  0.48261000  0.45088000  1.0
  H  H26  1  0.62430000  0.54462000  0.45912000  1.0
  H  H27  1  0.12430000  0.45913000  0.54463000  1.0
  H  H28  1  0.96255000  0.53683000  0.72798000  1.0
  H  H29  1  0.46255000  0.72798000  0.53683000  1.0
  H  H30  1  0.16155000  0.74369000  0.88577000  1.0
  H  H31  1  0.66156000  0.88576000  0.74368000  1.0
  H  H32  1  0.95530000  0.97762000  0.70766000  1.0
  H  H33  1  0.45532000  0.70767000  0.97763000  1.0
  H  H34  1  0.74450000  0.78095000  0.54187000  1.0
  H  H35  1  0.24451000  0.54188000  0.78096000  1.0
  H  H36  1  0.30659000  0.36475000  0.04605000  1.0
  H  H37  1  0.80659000  0.04605000  0.36475000  1.0
  H  H38  1  0.42473000  0.35397000  0.17046000  1.0
  H  H39  1  0.92473000  0.17046000  0.35397000  1.0
  C  C40  1  0.19891000  0.02603000  0.24937000  1.0
  C  C41  1  0.69890000  0.24936000  0.02601000  1.0
  C  C42  1  0.22491000  0.98606000  0.36645000  1.0
  C  C43  1  0.72490000  0.36644000  0.98605000  1.0
  C  C44  1  0.34087000  0.94307000  0.40954000  1.0
  C  C45  1  0.84085000  0.40952000  0.94304000  1.0
  C  C46  1  0.43057000  0.94115000  0.33664000  1.0
  C  C47  1  0.93056000  0.33663000  0.94113000  1.0
  C  C48  1  0.56674000  0.90733000  0.39326000  1.0
  C  C49  1  0.06674000  0.39326000  0.90733000  1.0
  C  C50  1  0.39000000  0.97509000  0.21558000  1.0
  C  C51  1  0.88999000  0.21558000  0.97510000  1.0
  C  C52  1  0.46996000  0.96387000  0.12416000  1.0
  C  C53  1  0.96996000  0.12417000  0.96387000  1.0
  C  C54  1  0.41347000  0.10611000  0.76433000  1.0
  C  C55  1  0.91347000  0.76431000  0.10610000  1.0
  C  C56  1  0.47304000  0.16043000  0.67804000  1.0
  C  C57  1  0.97305000  0.67803000  0.16043000  1.0
  C  C58  1  0.42221000  0.24988000  0.61857000  1.0
  C  C59  1  0.92222000  0.61856000  0.24988000  1.0
  C  C60  1  0.31326000  0.28073000  0.65103000  1.0
  C  C61  1  0.81326000  0.65102000  0.28071000  1.0
  C  C62  1  0.26175000  0.22564000  0.74128000  1.0
  C  C63  1  0.76176000  0.74128000  0.22562000  1.0
  C  C64  1  0.48881000  0.31631000  0.53024000  1.0
  C  C65  1  0.98882000  0.53023000  0.31631000  1.0
  C  C66  1  0.62276000  0.44388000  0.61486000  1.0
  C  C67  1  0.12276000  0.61485000  0.44388000  1.0
  C  C68  1  0.70205000  0.51778000  0.53435000  1.0
  C  C69  1  0.20205000  0.53435000  0.51778000  1.0
  C  C70  1  0.83255000  0.64098000  0.62361000  1.0
  C  C71  1  0.33256000  0.62361000  0.64098000  1.0
  C  C72  1  0.95407000  0.63221000  0.72008000  1.0
  C  C73  1  0.45408000  0.72008000  0.63221000  1.0
  C  C74  1  0.06648000  0.74778000  0.80883000  1.0
  C  C75  1  0.56649000  0.80883000  0.74778000  1.0
  C  C76  1  0.95197000  0.87789000  0.70922000  1.0
  C  C77  1  0.45198000  0.70924000  0.87789000  1.0
  C  C78  1  0.83430000  0.76746000  0.61711000  1.0
  C  C79  1  0.33431000  0.61712000  0.76746000  1.0
  N  N80  1  0.27809000  0.01800000  0.17450000  1.0
  N  N81  1  0.77808000  0.17450000  0.01800000  1.0
  N  N82  1  0.31128000  0.13940000  0.79724000  1.0
  N  N83  1  0.81128000  0.79722000  0.13937000  1.0
  N  N84  1  0.06520000  0.86909000  0.80563000  1.0
  N  N85  1  0.56522000  0.80563000  0.86909000  1.0
  O  O86  1  0.44111000  0.00670000  0.02134000  1.0
  O  O87  1  0.94112000  0.02135000  0.00671000  1.0
  O  O88  1  0.56466000  0.91130000  0.15686000  1.0
  O  O89  1  0.06465000  0.15686000  0.91129000  1.0
  O  O90  1  0.68986000  0.00586000  0.44351000  1.0
  O  O91  1  0.18985000  0.44350000  0.00587000  1.0
  O  O92  1  0.54285000  0.78786000  0.39280000  1.0
  O  O93  1  0.04285000  0.39281000  0.78786000  1.0
  O  O94  1  0.37646000  0.31770000  0.07505000  1.0
  O  O95  1  0.87647000  0.07504000  0.31770000  1.0
