# generated using pymatgen
data_NdH6(C2O3)3
_symmetry_space_group_name_H-M   'P 1'
_cell_length_a   6.68239000
_cell_length_b   10.32040000
_cell_length_c   13.57980000
_cell_angle_alpha   90.00000000
_cell_angle_beta   90.00000000
_cell_angle_gamma   89.99980000
_symmetry_Int_Tables_number   1
_chemical_formula_structural   NdH6(C2O3)3
_chemical_formula_sum   'Nd4 H24 C24 O36'
_cell_volume   936.53006173
_cell_formula_units_Z   4
loop_
 _symmetry_equiv_pos_site_id
 _symmetry_equiv_pos_as_xyz
  1  'x, y, z'
loop_
 _atom_site_type_symbol
 _atom_site_label
 _atom_site_symmetry_multiplicity
 _atom_site_fract_x
 _atom_site_fract_y
 _atom_site_fract_z
 _atom_site_occupancy
  Nd  Nd0  1  0.13405000  0.50000000  0.20059000  1.0
  Nd  Nd1  1  0.86594000  0.50000000  0.79941000  1.0
  Nd  Nd2  1  0.63405000  0.00000000  0.29940000  1.0
  Nd  Nd3  1  0.36594000  0.00000000  0.70059000  1.0
  H  H4  1  0.22186000  0.57520000  0.98196000  1.0
  H  H5  1  0.77814000  0.57520000  0.01804000  1.0
  H  H6  1  0.72186000  0.92480000  0.51804000  1.0
  H  H7  1  0.27814000  0.92480000  0.48196000  1.0
  H  H8  1  0.77814000  0.42480000  0.01804000  1.0
  H  H9  1  0.22186000  0.42480000  0.98196000  1.0
  H  H10  1  0.27814000  0.07520000  0.48196000  1.0
  H  H11  1  0.72186000  0.07520000  0.51804000  1.0
  H  H12  1  0.21067000  0.27042000  0.35281000  1.0
  H  H13  1  0.78933000  0.27042000  0.64719000  1.0
  H  H14  1  0.71067000  0.22958000  0.14719000  1.0
  H  H15  1  0.28933000  0.22958000  0.85281000  1.0
  H  H16  1  0.78933000  0.72958000  0.64719000  1.0
  H  H17  1  0.21067000  0.72958000  0.35281000  1.0
  H  H18  1  0.28933000  0.77042000  0.85281000  1.0
  H  H19  1  0.71067000  0.77042000  0.14719000  1.0
  H  H20  1  0.97820000  0.30716000  0.35370000  1.0
  H  H21  1  0.02179000  0.30716000  0.64630000  1.0
  H  H22  1  0.47820000  0.19284000  0.14630000  1.0
  H  H23  1  0.52180000  0.19284000  0.85370000  1.0
  H  H24  1  0.02179000  0.69284000  0.64630000  1.0
  H  H25  1  0.97821000  0.69284000  0.35370000  1.0
  H  H26  1  0.52180000  0.80716000  0.85370000  1.0
  H  H27  1  0.47820000  0.80716000  0.14630000  1.0
  C  C28  1  0.03802000  0.11727000  0.04816000  1.0
  C  C29  1  0.96198000  0.11727000  0.95184000  1.0
  C  C30  1  0.53801000  0.38273000  0.45184000  1.0
  C  C31  1  0.46198000  0.38273000  0.54816000  1.0
  C  C32  1  0.96199000  0.88272000  0.95184000  1.0
  C  C33  1  0.03802000  0.88273000  0.04816000  1.0
  C  C34  1  0.46198000  0.61727000  0.54816000  1.0
  C  C35  1  0.53802000  0.61728000  0.45184000  1.0
  C  C36  1  0.07480000  0.00000000  0.09681000  1.0
  C  C37  1  0.92520000  0.00000000  0.90319000  1.0
  C  C38  1  0.57480000  0.50000000  0.40319000  1.0
  C  C39  1  0.42520000  0.50000000  0.59681000  1.0
  C  C40  1  0.07320000  0.24347000  0.09993000  1.0
  C  C41  1  0.92680000  0.24347000  0.90007000  1.0
  C  C42  1  0.57319000  0.25653000  0.40007000  1.0
  C  C43  1  0.42680000  0.25653000  0.59993000  1.0
  C  C44  1  0.92680000  0.75653000  0.90007000  1.0
  C  C45  1  0.07320000  0.75653000  0.09993000  1.0
  C  C46  1  0.42680000  0.74347000  0.59993000  1.0
  C  C47  1  0.57320000  0.74347000  0.40007000  1.0
  C  C48  1  0.12752000  0.00000000  0.20517000  1.0
  C  C49  1  0.87248000  0.00000000  0.79484000  1.0
  C  C50  1  0.62753000  0.50000000  0.29484000  1.0
  C  C51  1  0.37248000  0.50000000  0.70517000  1.0
  O  O52  1  0.24884000  0.50000000  0.02420000  1.0
  O  O53  1  0.75116000  0.50000000  0.97580000  1.0
  O  O54  1  0.74884000  0.00000000  0.47580000  1.0
  O  O55  1  0.25116000  0.00000000  0.52420000  1.0
  O  O56  1  0.11315000  0.33841000  0.33491000  1.0
  O  O57  1  0.88685000  0.33841000  0.66508000  1.0
  O  O58  1  0.61315000  0.16159000  0.16508000  1.0
  O  O59  1  0.38685000  0.16159000  0.83492000  1.0
  O  O60  1  0.88685000  0.66159000  0.66508000  1.0
  O  O61  1  0.11316000  0.66159000  0.33492000  1.0
  O  O62  1  0.38685000  0.83841000  0.83492000  1.0
  O  O63  1  0.61315000  0.83841000  0.16508000  1.0
  O  O64  1  0.24469000  0.27080000  0.13358000  1.0
  O  O65  1  0.75531000  0.27080000  0.86642000  1.0
  O  O66  1  0.74469000  0.22920000  0.36642000  1.0
  O  O67  1  0.25531000  0.22920000  0.63358000  1.0
  O  O68  1  0.75532000  0.72920000  0.86642000  1.0
  O  O69  1  0.24469000  0.72920000  0.13358000  1.0
  O  O70  1  0.25531000  0.77080000  0.63358000  1.0
  O  O71  1  0.74469000  0.77080000  0.36642000  1.0
  O  O72  1  0.92553000  0.32270000  0.10940000  1.0
  O  O73  1  0.07446000  0.32270000  0.89060000  1.0
  O  O74  1  0.42553000  0.17730000  0.39060000  1.0
  O  O75  1  0.57446000  0.17730000  0.60940000  1.0
  O  O76  1  0.07447000  0.67730000  0.89060000  1.0
  O  O77  1  0.92554000  0.67730000  0.10940000  1.0
  O  O78  1  0.57446000  0.82270000  0.60940000  1.0
  O  O79  1  0.42553000  0.82270000  0.39060000  1.0
  O  O80  1  0.30765000  0.00000000  0.23043000  1.0
  O  O81  1  0.69235000  0.00000000  0.76957000  1.0
  O  O82  1  0.80765000  0.50000000  0.26957000  1.0
  O  O83  1  0.19235000  0.50000000  0.73043000  1.0
  O  O84  1  0.97992000  0.00000000  0.26414000  1.0
  O  O85  1  0.02008000  0.00000000  0.73585000  1.0
  O  O86  1  0.47992000  0.50000000  0.23586000  1.0
  O  O87  1  0.52008000  0.50000000  0.76414000  1.0
