# generated using pymatgen
data_NaH28AuC24N8(ClO2)4
_symmetry_space_group_name_H-M   'P 1'
_cell_length_a   7.85973000
_cell_length_b   14.16140000
_cell_length_c   14.65370000
_cell_angle_alpha   90.52340000
_cell_angle_beta   90.02970000
_cell_angle_gamma   106.06300000
_symmetry_Int_Tables_number   1
_chemical_formula_structural   NaH28AuC24N8(ClO2)4
_chemical_formula_sum   'Na2 H56 Au2 C48 N16 Cl8 O16'
_cell_volume   1567.27509814
_cell_formula_units_Z   2
loop_
 _symmetry_equiv_pos_site_id
 _symmetry_equiv_pos_as_xyz
  1  'x, y, z'
loop_
 _atom_site_type_symbol
 _atom_site_label
 _atom_site_symmetry_multiplicity
 _atom_site_fract_x
 _atom_site_fract_y
 _atom_site_fract_z
 _atom_site_occupancy
  Na  Na0  1  0.17346000  0.99994000  0.25002000  1.0
  Na  Na1  1  0.82654000  0.00006000  0.74998000  1.0
  H  H2  1  0.07291000  0.32167000  0.68111000  1.0
  H  H3  1  0.24978000  0.32205000  0.18093000  1.0
  H  H4  1  0.92709000  0.67833000  0.31889000  1.0
  H  H5  1  0.75022000  0.67795000  0.81907000  1.0
  H  H6  1  0.11395000  0.21669000  0.73342000  1.0
  H  H7  1  0.10430000  0.21708000  0.23332000  1.0
  H  H8  1  0.88605000  0.78331000  0.26658000  1.0
  H  H9  1  0.89570000  0.78292000  0.76668000  1.0
  H  H10  1  0.29520000  0.31092000  0.68761000  1.0
  H  H11  1  0.01673000  0.31120000  0.18743000  1.0
  H  H12  1  0.70480000  0.68907000  0.31239000  1.0
  H  H13  1  0.98327000  0.68880000  0.81257000  1.0
  H  H14  1  0.61031000  0.92224000  0.06407000  1.0
  H  H15  1  0.31067000  0.92198000  0.56426000  1.0
  H  H16  1  0.38969000  0.07776000  0.93592000  1.0
  H  H17  1  0.68933000  0.07801000  0.43574000  1.0
  H  H18  1  0.81330000  0.01349000  0.08379000  1.0
  H  H19  1  0.19890000  0.01331000  0.58401000  1.0
  H  H20  1  0.18669000  0.98652000  0.91621000  1.0
  H  H21  1  0.80110000  0.98669000  0.41599000  1.0
  H  H22  1  0.71679000  0.99592000  0.97079000  1.0
  H  H23  1  0.27779000  0.99573000  0.47104000  1.0
  H  H24  1  0.28320000  0.00408000  0.02920000  1.0
  H  H25  1  0.72220000  0.00426000  0.52897000  1.0
  H  H26  1  0.08239000  0.69930000  0.95305000  1.0
  H  H27  1  0.61589000  0.69970000  0.45272000  1.0
  H  H28  1  0.91762000  0.30070000  0.04695000  1.0
  H  H29  1  0.38410000  0.30030000  0.54728000  1.0
  H  H30  1  0.75059000  0.50809000  0.27890000  1.0
  H  H31  1  0.75776000  0.50854000  0.77882000  1.0
  H  H32  1  0.24941000  0.49191000  0.72110000  1.0
  H  H33  1  0.24223000  0.49147000  0.22118000  1.0
  H  H34  1  0.60501000  0.48170000  0.18304000  1.0
  H  H35  1  0.87673000  0.48207000  0.68294000  1.0
  H  H36  1  0.39498000  0.51829000  0.81696000  1.0
  H  H37  1  0.12327000  0.51793000  0.31706000  1.0
  H  H38  1  0.52702000  0.51185000  0.29177000  1.0
  H  H39  1  0.98507000  0.51218000  0.79167000  1.0
  H  H40  1  0.47298000  0.48815000  0.70823000  1.0
  H  H41  1  0.01493000  0.48782000  0.20833000  1.0
  H  H42  1  0.77258000  0.12598000  0.24978000  1.0
  H  H43  1  0.35485000  0.12643000  0.74964000  1.0
  H  H44  1  0.22741000  0.87402000  0.75022000  1.0
  H  H45  1  0.64515000  0.87357000  0.25037000  1.0
  H  H46  1  0.56134000  0.07412000  0.19745000  1.0
  H  H47  1  0.51402000  0.07445000  0.69724000  1.0
  H  H48  1  0.43865000  0.92587000  0.80255000  1.0
  H  H49  1  0.48598000  0.92555000  0.30276000  1.0
  H  H50  1  0.71686000  0.17623000  0.14546000  1.0
  H  H51  1  0.46034000  0.17658000  0.64526000  1.0
  H  H52  1  0.28313000  0.82377000  0.85455000  1.0
  H  H53  1  0.53965000  0.82342000  0.35474000  1.0
  H  H54  1  0.37805000  0.39080000  0.37808000  1.0
  H  H55  1  0.01323000  0.39125000  0.87806000  1.0
  H  H56  1  0.62194000  0.60920000  0.62192000  1.0
  H  H57  1  0.98677000  0.60875000  0.12194000  1.0
  Au  Au58  1  0.50000000  0.50000000  0.00000000  1.0
  Au  Au59  1  0.00001000  0.50000000  0.50000000  1.0
  C  C60  1  0.15574000  0.27076000  0.67919000  1.0
  C  C61  1  0.11623000  0.27109000  0.17905000  1.0
  C  C62  1  0.84426000  0.72924000  0.32081000  1.0
  C  C63  1  0.88377000  0.72891000  0.82095000  1.0
  C  C64  1  0.97416000  0.15100000  0.57404000  1.0
  C  C65  1  0.17788000  0.15100000  0.07412000  1.0
  C  C66  1  0.02584000  0.84900000  0.42596000  1.0
  C  C67  1  0.82212000  0.84900000  0.92588000  1.0
  C  C68  1  0.73860000  0.96012000  0.03385000  1.0
  C  C69  1  0.22022000  0.95994000  0.53405000  1.0
  C  C70  1  0.26139000  0.03988000  0.96615000  1.0
  C  C71  1  0.77978000  0.04005000  0.46596000  1.0
  C  C72  1  0.07713000  0.13461000  0.41659000  1.0
  C  C73  1  0.05881000  0.13469000  0.91653000  1.0
  C  C74  1  0.92286000  0.86538000  0.58342000  1.0
  C  C75  1  0.94121000  0.86532000  0.08346000  1.0
  C  C76  1  0.24303000  0.20546000  0.44016000  1.0
  C  C77  1  0.96395000  0.20576000  0.93995000  1.0
  C  C78  1  0.75695000  0.79454000  0.55984000  1.0
  C  C79  1  0.03607000  0.79424000  0.06005000  1.0
  C  C80  1  0.26304000  0.24597000  0.52577000  1.0
  C  C81  1  0.98436000  0.24630000  0.02555000  1.0
  C  C82  1  0.73695000  0.75402000  0.47423000  1.0
  C  C83  1  0.01565000  0.75370000  0.97444000  1.0
  C  C84  1  0.61366000  0.47444000  0.25716000  1.0
  C  C85  1  0.86102000  0.47484000  0.75707000  1.0
  C  C86  1  0.38634000  0.52555000  0.74284000  1.0
  C  C87  1  0.13898000  0.52517000  0.24293000  1.0
  C  C88  1  0.64427000  0.30957000  0.23603000  1.0
  C  C89  1  0.66607000  0.30995000  0.73581000  1.0
  C  C90  1  0.35572000  0.69042000  0.76398000  1.0
  C  C91  1  0.33393000  0.69005000  0.26418000  1.0
  C  C92  1  0.66561000  0.14227000  0.21009000  1.0
  C  C93  1  0.47791000  0.14265000  0.70989000  1.0
  C  C94  1  0.33438000  0.85773000  0.78991000  1.0
  C  C95  1  0.52209000  0.85736000  0.29011000  1.0
  C  C96  1  0.46268000  0.17176000  0.32657000  1.0
  C  C97  1  0.71061000  0.17215000  0.82629000  1.0
  C  C98  1  0.53731000  0.82824000  0.67343000  1.0
  C  C99  1  0.28940000  0.82785000  0.17370000  1.0
  C  C100  1  0.38139000  0.23984000  0.37074000  1.0
  C  C101  1  0.85988000  0.24020000  0.87048000  1.0
  C  C102  1  0.61860000  0.76016000  0.62926000  1.0
  C  C103  1  0.14014000  0.75981000  0.12951000  1.0
  C  C104  1  0.43511000  0.33646000  0.34672000  1.0
  C  C105  1  0.90215000  0.33685000  0.84659000  1.0
  C  C106  1  0.56488000  0.66354000  0.65328000  1.0
  C  C107  1  0.09786000  0.66315000  0.15341000  1.0
  N  N108  1  0.13446000  0.22062000  0.59047000  1.0
  N  N109  1  0.08742000  0.22084000  0.09037000  1.0
  N  N110  1  0.86554000  0.77937000  0.40954000  1.0
  N  N111  1  0.91259000  0.77916000  0.90962000  1.0
  N  N112  1  0.84045000  0.89006000  0.01304000  1.0
  N  N113  1  0.04841000  0.89001000  0.51313000  1.0
  N  N114  1  0.15956000  0.10995000  0.98696000  1.0
  N  N115  1  0.95158000  0.10999000  0.48688000  1.0
  N  N116  1  0.55999000  0.37062000  0.28165000  1.0
  N  N117  1  0.81116000  0.37101000  0.78153000  1.0
  N  N118  1  0.44001000  0.62938000  0.71835000  1.0
  N  N119  1  0.18884000  0.62899000  0.21847000  1.0
  N  N120  1  0.58986000  0.21111000  0.26004000  1.0
  N  N121  1  0.62253000  0.21148000  0.75975000  1.0
  N  N122  1  0.41013000  0.78889000  0.73997000  1.0
  N  N123  1  0.37748000  0.78853000  0.24025000  1.0
  Cl  Cl124  1  0.20251000  0.48441000  0.01622000  1.0
  Cl  Cl125  1  0.28176000  0.48406000  0.51624000  1.0
  Cl  Cl126  1  0.79749000  0.51559000  0.98379000  1.0
  Cl  Cl127  1  0.71826000  0.51594000  0.48375000  1.0
  Cl  Cl128  1  0.43738000  0.34482000  0.93482000  1.0
  Cl  Cl129  1  0.90769000  0.34494000  0.43457000  1.0
  Cl  Cl130  1  0.56263000  0.65519000  0.06519000  1.0
  Cl  Cl131  1  0.09230000  0.65507000  0.56542000  1.0
  O  O132  1  0.86023000  0.12721000  0.63429000  1.0
  O  O133  1  0.26775000  0.12707000  0.13450000  1.0
  O  O134  1  0.13977000  0.87278000  0.36572000  1.0
  O  O135  1  0.73226000  0.87293000  0.86551000  1.0
  O  O136  1  0.94184000  0.90429000  0.16037000  1.0
  O  O137  1  0.96118000  0.90423000  0.66037000  1.0
  O  O138  1  0.05819000  0.09572000  0.83963000  1.0
  O  O139  1  0.03881000  0.09575000  0.33964000  1.0
  O  O140  1  0.75820000  0.34259000  0.17766000  1.0
  O  O141  1  0.58486000  0.34297000  0.67749000  1.0
  O  O142  1  0.24180000  0.65741000  0.82234000  1.0
  O  O143  1  0.41514000  0.65704000  0.32252000  1.0
  O  O144  1  0.42594000  0.08219000  0.34385000  1.0
  O  O145  1  0.65791000  0.08259000  0.84364000  1.0
  O  O146  1  0.57407000  0.91781000  0.65616000  1.0
  O  O147  1  0.34209000  0.91741000  0.15636000  1.0
