# generated using pymatgen
data_H8PbC10(BrN)2
_symmetry_space_group_name_H-M   'P 1'
_cell_length_a   8.29670000
_cell_length_b   9.23032000
_cell_length_c   9.22965000
_cell_angle_alpha   64.05570000
_cell_angle_beta   78.44410000
_cell_angle_gamma   78.45340000
_symmetry_Int_Tables_number   1
_chemical_formula_structural   H8PbC10(BrN)2
_chemical_formula_sum   'H16 Pb2 C20 Br4 N4'
_cell_volume   617.60086789
_cell_formula_units_Z   2
loop_
 _symmetry_equiv_pos_site_id
 _symmetry_equiv_pos_as_xyz
  1  'x, y, z'
loop_
 _atom_site_type_symbol
 _atom_site_label
 _atom_site_symmetry_multiplicity
 _atom_site_fract_x
 _atom_site_fract_y
 _atom_site_fract_z
 _atom_site_occupancy
  H  H0  1  0.93606000  0.33041000  0.98547000  1.0
  H  H1  1  0.56382000  0.01464000  0.66962000  1.0
  H  H2  1  0.06390000  0.66948000  0.01448000  1.0
  H  H3  1  0.43610000  0.98533000  0.33036000  1.0
  H  H4  1  0.80571000  0.62115000  0.85758000  1.0
  H  H5  1  0.69417000  0.14254000  0.37881000  1.0
  H  H6  1  0.19423000  0.37878000  0.14246000  1.0
  H  H7  1  0.30584000  0.85749000  0.62119000  1.0
  H  H8  1  0.92887000  0.79874000  0.57503000  1.0
  H  H9  1  0.57108000  0.42504000  0.20120000  1.0
  H  H10  1  0.07119000  0.20126000  0.42506000  1.0
  H  H11  1  0.42896000  0.57502000  0.79879000  1.0
  H  H12  1  0.16379000  0.68152000  0.43439000  1.0
  H  H13  1  0.33618000  0.56561000  0.31848000  1.0
  H  H14  1  0.83616000  0.31852000  0.56554000  1.0
  H  H15  1  0.66379000  0.43442000  0.68153000  1.0
  Pb  Pb16  1  0.25004000  0.06207000  0.93796000  1.0
  Pb  Pb17  1  0.75002000  0.93795000  0.06208000  1.0
  C  C18  1  0.98303000  0.41312000  0.86334000  1.0
  C  C19  1  0.51689000  0.13677000  0.58691000  1.0
  C  C20  1  0.01694000  0.58685000  0.13664000  1.0
  C  C21  1  0.48309000  0.86324000  0.41306000  1.0
  C  C22  1  0.91167000  0.57394000  0.79224000  1.0
  C  C23  1  0.58824000  0.20788000  0.42604000  1.0
  C  C24  1  0.08829000  0.42603000  0.20780000  1.0
  C  C25  1  0.41176000  0.79214000  0.57393000  1.0
  C  C26  1  0.97895000  0.67157000  0.63606000  1.0
  C  C27  1  0.52099000  0.36402000  0.32841000  1.0
  C  C28  1  0.02109000  0.32841000  0.36400000  1.0
  C  C29  1  0.47902000  0.63601000  0.67159000  1.0
  C  C30  1  0.11235000  0.60515000  0.55663000  1.0
  C  C31  1  0.38758000  0.44341000  0.39487000  1.0
  C  C32  1  0.88764000  0.39487000  0.44336000  1.0
  C  C33  1  0.61240000  0.55660000  0.60513000  1.0
  C  C34  1  0.17868000  0.44229000  0.63553000  1.0
  C  C35  1  0.32126000  0.36457000  0.55775000  1.0
  C  C36  1  0.82131000  0.55777000  0.36448000  1.0
  C  C37  1  0.67876000  0.63546000  0.44219000  1.0
  Br  Br38  1  0.02925000  0.98146000  0.76663000  1.0
  Br  Br39  1  0.47104000  0.23343000  0.01849000  1.0
  Br  Br40  1  0.97087000  0.01840000  0.23353000  1.0
  Br  Br41  1  0.52897000  0.76658000  0.98143000  1.0
  N  N42  1  0.11354000  0.34966000  0.78778000  1.0
  N  N43  1  0.38640000  0.21235000  0.65037000  1.0
  N  N44  1  0.88648000  0.65034000  0.21219000  1.0
  N  N45  1  0.61358000  0.78769000  0.34959000  1.0
