# generated using pymatgen
data_NdH9C5SNO9
_symmetry_space_group_name_H-M   'P 1'
_cell_length_a   6.34811000
_cell_length_b   10.38300000
_cell_length_c   17.07150000
_cell_angle_alpha   74.04260000
_cell_angle_beta   79.28350000
_cell_angle_gamma   72.19960000
_symmetry_Int_Tables_number   1
_chemical_formula_structural   NdH9C5SNO9
_chemical_formula_sum   'Nd4 H36 C20 S4 N4 O36'
_cell_volume   1023.67104435
_cell_formula_units_Z   4
loop_
 _symmetry_equiv_pos_site_id
 _symmetry_equiv_pos_as_xyz
  1  'x, y, z'
loop_
 _atom_site_type_symbol
 _atom_site_label
 _atom_site_symmetry_multiplicity
 _atom_site_fract_x
 _atom_site_fract_y
 _atom_site_fract_z
 _atom_site_occupancy
  Nd  Nd0  1  0.82445000  0.56963000  0.75164000  1.0
  Nd  Nd1  1  0.14564000  0.93029000  0.74838000  1.0
  Nd  Nd2  1  0.17555000  0.43037000  0.24836000  1.0
  Nd  Nd3  1  0.85436000  0.06971000  0.25162000  1.0
  H  H4  1  0.43309000  0.84977000  0.48804000  1.0
  H  H5  1  0.77068000  0.65020000  0.01179000  1.0
  H  H6  1  0.56690000  0.15023000  0.51196000  1.0
  H  H7  1  0.22932000  0.34980000  0.98821000  1.0
  H  H8  1  0.67401000  0.77210000  0.42735000  1.0
  H  H9  1  0.87324000  0.72767000  0.07261000  1.0
  H  H10  1  0.32599000  0.22790000  0.57265000  1.0
  H  H11  1  0.12675000  0.27233000  0.92739000  1.0
  H  H12  1  0.82287000  0.50053000  0.55675000  1.0
  H  H13  1  0.88014000  0.99937000  0.94317000  1.0
  H  H14  1  0.17713000  0.49947000  0.44325000  1.0
  H  H15  1  0.11987000  0.00063000  0.05683000  1.0
  H  H16  1  0.79636000  0.51924000  0.45051000  1.0
  H  H17  1  0.76626000  0.98070000  0.04942000  1.0
  H  H18  1  0.20364000  0.48076000  0.54949000  1.0
  H  H19  1  0.23374000  0.01930000  0.95058000  1.0
  H  H20  1  0.20885000  0.71776000  0.46390000  1.0
  H  H21  1  0.39034000  0.78226000  0.03616000  1.0
  H  H22  1  0.79115000  0.28223000  0.53610000  1.0
  H  H23  1  0.60966000  0.21774000  0.96383000  1.0
  H  H24  1  0.43857000  0.64566000  0.39691000  1.0
  H  H25  1  0.48122000  0.85434000  0.10312000  1.0
  H  H26  1  0.56143000  0.35434000  0.60309000  1.0
  H  H27  1  0.51878000  0.14566000  0.89688000  1.0
  H  H28  1  0.43248000  0.62280000  0.57474000  1.0
  H  H29  1  0.62974000  0.87718000  0.92524000  1.0
  H  H30  1  0.56752000  0.37720000  0.42526000  1.0
  H  H31  1  0.37026000  0.12282000  0.07476000  1.0
  H  H32  1  0.71476000  0.48642000  0.93849000  1.0
  H  H33  1  0.13981000  0.01344000  0.56154000  1.0
  H  H34  1  0.28524000  0.51358000  0.06151000  1.0
  H  H35  1  0.86019000  0.98656000  0.43846000  1.0
  H  H36  1  0.49513000  0.60458000  0.91154000  1.0
  H  H37  1  0.01120000  0.89540000  0.58844000  1.0
  H  H38  1  0.50487000  0.39542000  0.08846000  1.0
  H  H39  1  0.98880000  0.10460000  0.41156000  1.0
  C  C40  1  0.73184000  0.77212000  0.54837000  1.0
  C  C41  1  0.05221000  0.72783000  0.95158000  1.0
  C  C42  1  0.26816000  0.22788000  0.45163000  1.0
  C  C43  1  0.94779000  0.27217000  0.04842000  1.0
  C  C44  1  0.58535000  0.76330000  0.48938000  1.0
  C  C45  1  0.83786000  0.73660000  0.01054000  1.0
  C  C46  1  0.41466000  0.23670000  0.51062000  1.0
  C  C47  1  0.16214000  0.26340000  0.98946000  1.0
  C  C48  1  0.71261000  0.50418000  0.51351000  1.0
  C  C49  1  0.73032000  0.99579000  0.98643000  1.0
  C  C50  1  0.28739000  0.49582000  0.48649000  1.0
  C  C51  1  0.26968000  0.00421000  0.01357000  1.0
  C  C52  1  0.35699000  0.62996000  0.46017000  1.0
  C  C53  1  0.44707000  0.87004000  0.03988000  1.0
  C  C54  1  0.64301000  0.37004000  0.53983000  1.0
  C  C55  1  0.55293000  0.12996000  0.96012000  1.0
  C  C56  1  0.00310000  0.22985000  0.79740000  1.0
  C  C57  1  0.03003000  0.26998000  0.70262000  1.0
  C  C58  1  0.99689000  0.77015000  0.20260000  1.0
  C  C59  1  0.96997000  0.73002000  0.29738000  1.0
  S  S60  1  0.33140000  0.56758000  0.74261000  1.0
  S  S61  1  0.64135000  0.93244000  0.75742000  1.0
  S  S62  1  0.66860000  0.43242000  0.25739000  1.0
  S  S63  1  0.35865000  0.06756000  0.24258000  1.0
  N  N64  1  0.51646000  0.63007000  0.51501000  1.0
  N  N65  1  0.66142000  0.86989000  0.98496000  1.0
  N  N66  1  0.48354000  0.36993000  0.48499000  1.0
  N  N67  1  0.33858000  0.13011000  0.01504000  1.0
  O  O68  1  0.83360000  0.86562000  0.52561000  1.0
  O  O69  1  0.22485000  0.63448000  0.97437000  1.0
  O  O70  1  0.16640000  0.13438000  0.47439000  1.0
  O  O71  1  0.77515000  0.36552000  0.02563000  1.0
  O  O72  1  0.74018000  0.68309000  0.61608000  1.0
  O  O73  1  0.03917000  0.81680000  0.88386000  1.0
  O  O74  1  0.25982000  0.31691000  0.38392000  1.0
  O  O75  1  0.96083000  0.18321000  0.11614000  1.0
  O  O76  1  0.91861000  0.32690000  0.83421000  1.0
  O  O77  1  0.07874000  0.17301000  0.66579000  1.0
  O  O78  1  0.08139000  0.67310000  0.16579000  1.0
  O  O79  1  0.92126000  0.82699000  0.33421000  1.0
  O  O80  1  0.07188000  0.10177000  0.83130000  1.0
  O  O81  1  0.00465000  0.39807000  0.66873000  1.0
  O  O82  1  0.92812000  0.89823000  0.16870000  1.0
  O  O83  1  0.99535000  0.60193000  0.33127000  1.0
  O  O84  1  0.16896000  0.52590000  0.81234000  1.0
  O  O85  1  0.50694000  0.97450000  0.68765000  1.0
  O  O86  1  0.83104000  0.47410000  0.18766000  1.0
  O  O87  1  0.49306000  0.02550000  0.31235000  1.0
  O  O88  1  0.22224000  0.60821000  0.66597000  1.0
  O  O89  1  0.49610000  0.89160000  0.83399000  1.0
  O  O90  1  0.77775000  0.39179000  0.33403000  1.0
  O  O91  1  0.50390000  0.10840000  0.16601000  1.0
  O  O92  1  0.39634000  0.68995000  0.75342000  1.0
  O  O93  1  0.83937000  0.81009000  0.74650000  1.0
  O  O94  1  0.60366000  0.31005000  0.24658000  1.0
  O  O95  1  0.16063000  0.18991000  0.25350000  1.0
  O  O96  1  0.54121000  0.45562000  0.73871000  1.0
  O  O97  1  0.73541000  0.04421000  0.76157000  1.0
  O  O98  1  0.45879000  0.54438000  0.26129000  1.0
  O  O99  1  0.26459000  0.95579000  0.23843000  1.0
  O  O100  1  0.65591000  0.56852000  0.89393000  1.0
  O  O101  1  0.11845000  0.93131000  0.60607000  1.0
  O  O102  1  0.34409000  0.43148000  0.10607000  1.0
  O  O103  1  0.88154000  0.06869000  0.39393000  1.0
