# generated using pymatgen
data_ZnH11C11NO6
_symmetry_space_group_name_H-M   'P 1'
_cell_length_a   10.30620000
_cell_length_b   15.65880000
_cell_length_c   22.84260000
_cell_angle_alpha   89.99990000
_cell_angle_beta   88.23680000
_cell_angle_gamma   89.99970000
_symmetry_Int_Tables_number   1
_chemical_formula_structural   ZnH11C11NO6
_chemical_formula_sum   'Zn8 H88 C88 N8 O48'
_cell_volume   3684.65561905
_cell_formula_units_Z   8
loop_
 _symmetry_equiv_pos_site_id
 _symmetry_equiv_pos_as_xyz
  1  'x, y, z'
loop_
 _atom_site_type_symbol
 _atom_site_label
 _atom_site_symmetry_multiplicity
 _atom_site_fract_x
 _atom_site_fract_y
 _atom_site_fract_z
 _atom_site_occupancy
  Zn  Zn0  1  0.97945000  0.84047000  0.74390000  1.0
  Zn  Zn1  1  0.84873000  0.97613000  0.85761000  1.0
  Zn  Zn2  1  0.52056000  0.34048000  0.75610000  1.0
  Zn  Zn3  1  0.65128000  0.47613000  0.64239000  1.0
  Zn  Zn4  1  0.02056000  0.15952000  0.25610000  1.0
  Zn  Zn5  1  0.15127000  0.02387000  0.14239000  1.0
  Zn  Zn6  1  0.47945000  0.65952000  0.24390000  1.0
  Zn  Zn7  1  0.34873000  0.52387000  0.35761000  1.0
  H  H8  1  0.56120000  0.79371000  0.91249000  1.0
  H  H9  1  0.71970000  0.67810000  0.75493000  1.0
  H  H10  1  0.43561000  0.54248000  0.86225000  1.0
  H  H11  1  0.25520000  0.72878000  0.85993000  1.0
  H  H12  1  0.10866000  0.93454000  0.96815000  1.0
  H  H13  1  0.38643000  0.75764000  0.03649000  1.0
  H  H14  1  0.19192000  0.71273000  0.73459000  1.0
  H  H15  1  0.32511000  0.60869000  0.72722000  1.0
  H  H16  1  0.29447000  0.53665000  0.66854000  1.0
  H  H17  1  0.25819000  0.50588000  0.74214000  1.0
  H  H18  1  0.05893000  0.50396000  0.64956000  1.0
  H  H19  1  0.93883000  0.57437000  0.67996000  1.0
  H  H20  1  0.00485000  0.49053000  0.72400000  1.0
  H  H21  1  0.79819000  0.73587000  0.64796000  1.0
  H  H22  1  0.52991000  0.93269000  0.63681000  1.0
  H  H23  1  0.68971000  0.95740000  0.60884000  1.0
  H  H24  1  0.65974000  0.95101000  0.68578000  1.0
  H  H25  1  0.48133000  0.78070000  0.66890000  1.0
  H  H26  1  0.59479000  0.70665000  0.63672000  1.0
  H  H27  1  0.51289000  0.78109000  0.59155000  1.0
  H  H28  1  0.06533000  0.84445000  0.64371000  1.0
  H  H29  1  0.13081000  0.91787000  0.67576000  1.0
  H  H30  1  0.93881000  0.29371000  0.58751000  1.0
  H  H31  1  0.78031000  0.17810000  0.74507000  1.0
  H  H32  1  0.06438000  0.04247000  0.63774000  1.0
  H  H33  1  0.24481000  0.22877000  0.64007000  1.0
  H  H34  1  0.39135000  0.43453000  0.53185000  1.0
  H  H35  1  0.11358000  0.25764000  0.46351000  1.0
  H  H36  1  0.30808000  0.21275000  0.76540000  1.0
  H  H37  1  0.17489000  0.10870000  0.77277000  1.0
  H  H38  1  0.20551000  0.03666000  0.83145000  1.0
  H  H39  1  0.24180000  0.00590000  0.75785000  1.0
  H  H40  1  0.44104000  0.00397000  0.85044000  1.0
  H  H41  1  0.56115000  0.07438000  0.82004000  1.0
  H  H42  1  0.49513000  0.99053000  0.77600000  1.0
  H  H43  1  0.70181000  0.23588000  0.85204000  1.0
  H  H44  1  0.97011000  0.43268000  0.86319000  1.0
  H  H45  1  0.81032000  0.45740000  0.89117000  1.0
  H  H46  1  0.84026000  0.45101000  0.81422000  1.0
  H  H47  1  0.01867000  0.28070000  0.83112000  1.0
  H  H48  1  0.90520000  0.20665000  0.86329000  1.0
  H  H49  1  0.98710000  0.28108000  0.90846000  1.0
  H  H50  1  0.43466000  0.34446000  0.85628000  1.0
  H  H51  1  0.36919000  0.41789000  0.82424000  1.0
  H  H52  1  0.43881000  0.20629000  0.08751000  1.0
  H  H53  1  0.28031000  0.32190000  0.24507000  1.0
  H  H54  1  0.56438000  0.45752000  0.13774000  1.0
  H  H55  1  0.74480000  0.27122000  0.14007000  1.0
  H  H56  1  0.89135000  0.06546000  0.03185000  1.0
  H  H57  1  0.61357000  0.24236000  0.96351000  1.0
  H  H58  1  0.80809000  0.28726000  0.26540000  1.0
  H  H59  1  0.67490000  0.39130000  0.27277000  1.0
  H  H60  1  0.70552000  0.46335000  0.33145000  1.0
  H  H61  1  0.74181000  0.49411000  0.25785000  1.0
  H  H62  1  0.94105000  0.49604000  0.35044000  1.0
  H  H63  1  0.06116000  0.42563000  0.32004000  1.0
  H  H64  1  0.99514000  0.50948000  0.27601000  1.0
  H  H65  1  0.20180000  0.26412000  0.35204000  1.0
  H  H66  1  0.47010000  0.06731000  0.36319000  1.0
  H  H67  1  0.31030000  0.04260000  0.39116000  1.0
  H  H68  1  0.34026000  0.04899000  0.31421000  1.0
  H  H69  1  0.51867000  0.21930000  0.33111000  1.0
  H  H70  1  0.40520000  0.29335000  0.36328000  1.0
  H  H71  1  0.48709000  0.21892000  0.40846000  1.0
  H  H72  1  0.93466000  0.15554000  0.35628000  1.0
  H  H73  1  0.86918000  0.08212000  0.32424000  1.0
  H  H74  1  0.06120000  0.70629000  0.41249000  1.0
  H  H75  1  0.21970000  0.82190000  0.25493000  1.0
  H  H76  1  0.93562000  0.95752000  0.36225000  1.0
  H  H77  1  0.75520000  0.77122000  0.35993000  1.0
  H  H78  1  0.60866000  0.56546000  0.46815000  1.0
  H  H79  1  0.88643000  0.74236000  0.53649000  1.0
  H  H80  1  0.69192000  0.78726000  0.23459000  1.0
  H  H81  1  0.82510000  0.89130000  0.22723000  1.0
  H  H82  1  0.79448000  0.96335000  0.16855000  1.0
  H  H83  1  0.75819000  0.99411000  0.24215000  1.0
  H  H84  1  0.55894000  0.99604000  0.14956000  1.0
  H  H85  1  0.43883000  0.92563000  0.17996000  1.0
  H  H86  1  0.50485000  0.00947000  0.22400000  1.0
  H  H87  1  0.29819000  0.76412000  0.14796000  1.0
  H  H88  1  0.02990000  0.56732000  0.13681000  1.0
  H  H89  1  0.18969000  0.54260000  0.10884000  1.0
  H  H90  1  0.15973000  0.54899000  0.18579000  1.0
  H  H91  1  0.98133000  0.71930000  0.16890000  1.0
  H  H92  1  0.09480000  0.79336000  0.13673000  1.0
  H  H93  1  0.01289000  0.71892000  0.09155000  1.0
  H  H94  1  0.56532000  0.65554000  0.14371000  1.0
  H  H95  1  0.63082000  0.58212000  0.17575000  1.0
  C  C96  1  0.48929000  0.66733000  0.89217000  1.0
  C  C97  1  0.56579000  0.73980000  0.88234000  1.0
  C  C98  1  0.64875000  0.74349000  0.83287000  1.0
  C  C99  1  0.65495000  0.67517000  0.79340000  1.0
  C  C100  1  0.57827000  0.60271000  0.80382000  1.0
  C  C101  1  0.49582000  0.59843000  0.85371000  1.0
  C  C102  1  0.73213000  0.82060000  0.82276000  1.0
  C  C103  1  0.57988000  0.53147000  0.76012000  1.0
  C  C104  1  0.32712000  0.73513000  0.94792000  1.0
  C  C105  1  0.25245000  0.76258000  0.90162000  1.0
  C  C106  1  0.17417000  0.83489000  0.90883000  1.0
  C  C107  1  0.17034000  0.87860000  0.96235000  1.0
  C  C108  1  0.24598000  0.85061000  0.00834000  1.0
  C  C109  1  0.32515000  0.77831000  0.00116000  1.0
  C  C110  1  0.09209000  0.86482000  0.85988000  1.0
  C  C111  1  0.24591000  0.89883000  0.06537000  1.0
  C  C112  1  0.10532000  0.67664000  0.72191000  1.0
  C  C113  1  0.25851000  0.55984000  0.71143000  1.0
  C  C114  1  0.02616000  0.53791000  0.68942000  1.0
  C  C115  1  0.78432000  0.80570000  0.64852000  1.0
  C  C116  1  0.63381000  0.92366000  0.64339000  1.0
  C  C117  1  0.55692000  0.77192000  0.63435000  1.0
  C  C118  1  0.01071000  0.16733000  0.60783000  1.0
  C  C119  1  0.93422000  0.23980000  0.61766000  1.0
  C  C120  1  0.85126000  0.24349000  0.66713000  1.0
  C  C121  1  0.84506000  0.17517000  0.70660000  1.0
  C  C122  1  0.92173000  0.10271000  0.69618000  1.0
  C  C123  1  0.00418000  0.09843000  0.64628000  1.0
  C  C124  1  0.76789000  0.32061000  0.67724000  1.0
  C  C125  1  0.92011000  0.03147000  0.73988000  1.0
  C  C126  1  0.17288000  0.23513000  0.55208000  1.0
  C  C127  1  0.24756000  0.26257000  0.59837000  1.0
  C  C128  1  0.32584000  0.33488000  0.59117000  1.0
  C  C129  1  0.32967000  0.37860000  0.53765000  1.0
  C  C130  1  0.25403000  0.35061000  0.49165000  1.0
  C  C131  1  0.17486000  0.27831000  0.49883000  1.0
  C  C132  1  0.40792000  0.36481000  0.64012000  1.0
  C  C133  1  0.25410000  0.39883000  0.43463000  1.0
  C  C134  1  0.39468000  0.17665000  0.77809000  1.0
  C  C135  1  0.24148000  0.05986000  0.78856000  1.0
  C  C136  1  0.47382000  0.03793000  0.81059000  1.0
  C  C137  1  0.71568000  0.30571000  0.85148000  1.0
  C  C138  1  0.86620000  0.42366000  0.85661000  1.0
  C  C139  1  0.94307000  0.27191000  0.86566000  1.0
  C  C140  1  0.51071000  0.33267000  0.10783000  1.0
  C  C141  1  0.43422000  0.26019000  0.11766000  1.0
  C  C142  1  0.35126000  0.25651000  0.16713000  1.0
  C  C143  1  0.34506000  0.32483000  0.20660000  1.0
  C  C144  1  0.42173000  0.39729000  0.19618000  1.0
  C  C145  1  0.50418000  0.40157000  0.14628000  1.0
  C  C146  1  0.26788000  0.17939000  0.17724000  1.0
  C  C147  1  0.42012000  0.46853000  0.23988000  1.0
  C  C148  1  0.67288000  0.26487000  0.05208000  1.0
  C  C149  1  0.74755000  0.23743000  0.09837000  1.0
  C  C150  1  0.82583000  0.16511000  0.09117000  1.0
  C  C151  1  0.82966000  0.12140000  0.03765000  1.0
  C  C152  1  0.75402000  0.14939000  0.99165000  1.0
  C  C153  1  0.67485000  0.22169000  0.99884000  1.0
  C  C154  1  0.90791000  0.13518000  0.14012000  1.0
  C  C155  1  0.75409000  0.10117000  0.93463000  1.0
  C  C156  1  0.89469000  0.32336000  0.27809000  1.0
  C  C157  1  0.74149000  0.44015000  0.28856000  1.0
  C  C158  1  0.97383000  0.46209000  0.31059000  1.0
  C  C159  1  0.21568000  0.19429000  0.35148000  1.0
  C  C160  1  0.36619000  0.07634000  0.35660000  1.0
  C  C161  1  0.44307000  0.22809000  0.36565000  1.0
  C  C162  1  0.98929000  0.83267000  0.39217000  1.0
  C  C163  1  0.06579000  0.76020000  0.38234000  1.0
  C  C164  1  0.14875000  0.75651000  0.33287000  1.0
  C  C165  1  0.15494000  0.82483000  0.29339000  1.0
  C  C166  1  0.07827000  0.89729000  0.30382000  1.0
  C  C167  1  0.99582000  0.90157000  0.35372000  1.0
  C  C168  1  0.23212000  0.67939000  0.32276000  1.0
  C  C169  1  0.07989000  0.96853000  0.26012000  1.0
  C  C170  1  0.82712000  0.76487000  0.44792000  1.0
  C  C171  1  0.75245000  0.73742000  0.40162000  1.0
  C  C172  1  0.67417000  0.66511000  0.40883000  1.0
  C  C173  1  0.67034000  0.62140000  0.46235000  1.0
  C  C174  1  0.74598000  0.64939000  0.50834000  1.0
  C  C175  1  0.82515000  0.72169000  0.50116000  1.0
  C  C176  1  0.59209000  0.63518000  0.35988000  1.0
  C  C177  1  0.74591000  0.60117000  0.56537000  1.0
  C  C178  1  0.60531000  0.82336000  0.22191000  1.0
  C  C179  1  0.75851000  0.94015000  0.21144000  1.0
  C  C180  1  0.52617000  0.96208000  0.18942000  1.0
  C  C181  1  0.28432000  0.69429000  0.14852000  1.0
  C  C182  1  0.13380000  0.57634000  0.14340000  1.0
  C  C183  1  0.05692000  0.72809000  0.13436000  1.0
  N  N184  1  0.12864000  0.59536000  0.70764000  1.0
  N  N185  1  0.66248000  0.83234000  0.64192000  1.0
  N  N186  1  0.37136000  0.09538000  0.79236000  1.0
  N  N187  1  0.83753000  0.33234000  0.85809000  1.0
  N  N188  1  0.87137000  0.40463000  0.29236000  1.0
  N  N189  1  0.33752000  0.16766000  0.35808000  1.0
  N  N190  1  0.62863000  0.90463000  0.20764000  1.0
  N  N191  1  0.16248000  0.66766000  0.14192000  1.0
  O  O192  1  0.79572000  0.82554000  0.77444000  1.0
  O  O193  1  0.73214000  0.87637000  0.86364000  1.0
  O  O194  1  0.66166000  0.53803000  0.71722000  1.0
  O  O195  1  0.49819000  0.47113000  0.76765000  1.0
  O  O196  1  0.09315000  0.82009000  0.81307000  1.0
  O  O197  1  0.02794000  0.93305000  0.86886000  1.0
  O  O198  1  0.15724000  0.95745000  0.07071000  1.0
  O  O199  1  0.32620000  0.88052000  0.10329000  1.0
  O  O200  1  0.40547000  0.66279000  0.94083000  1.0
  O  O201  1  0.99532000  0.71150000  0.72139000  1.0
  O  O202  1  0.87759000  0.85689000  0.65411000  1.0
  O  O203  1  0.13998000  0.85645000  0.66846000  1.0
  O  O204  1  0.70430000  0.32555000  0.72557000  1.0
  O  O205  1  0.76787000  0.37638000  0.63636000  1.0
  O  O206  1  0.83834000  0.03802000  0.78278000  1.0
  O  O207  1  0.00181000  0.97112000  0.73235000  1.0
  O  O208  1  0.40685000  0.32009000  0.68693000  1.0
  O  O209  1  0.47207000  0.43304000  0.63114000  1.0
  O  O210  1  0.34276000  0.45744000  0.42929000  1.0
  O  O211  1  0.17381000  0.38052000  0.39671000  1.0
  O  O212  1  0.09453000  0.16279000  0.55917000  1.0
  O  O213  1  0.50468000  0.21151000  0.77861000  1.0
  O  O214  1  0.62241000  0.35690000  0.84589000  1.0
  O  O215  1  0.36001000  0.35646000  0.83154000  1.0
  O  O216  1  0.20429000  0.17445000  0.22557000  1.0
  O  O217  1  0.26787000  0.12362000  0.13636000  1.0
  O  O218  1  0.33834000  0.46198000  0.28278000  1.0
  O  O219  1  0.50182000  0.52887000  0.23235000  1.0
  O  O220  1  0.90686000  0.17991000  0.18693000  1.0
  O  O221  1  0.97206000  0.06696000  0.13114000  1.0
  O  O222  1  0.84276000  0.04255000  0.92929000  1.0
  O  O223  1  0.67381000  0.11948000  0.89671000  1.0
  O  O224  1  0.59453000  0.33721000  0.05917000  1.0
  O  O225  1  0.00469000  0.28849000  0.27861000  1.0
  O  O226  1  0.12240000  0.14310000  0.34589000  1.0
  O  O227  1  0.86001000  0.14355000  0.33153000  1.0
  O  O228  1  0.29571000  0.67445000  0.27443000  1.0
  O  O229  1  0.23213000  0.62362000  0.36364000  1.0
  O  O230  1  0.16166000  0.96198000  0.21722000  1.0
  O  O231  1  0.99819000  0.02887000  0.26765000  1.0
  O  O232  1  0.59315000  0.67991000  0.31307000  1.0
  O  O233  1  0.52794000  0.56695000  0.36886000  1.0
  O  O234  1  0.65725000  0.54255000  0.57071000  1.0
  O  O235  1  0.82620000  0.61948000  0.60329000  1.0
  O  O236  1  0.90547000  0.83720000  0.44083000  1.0
  O  O237  1  0.49532000  0.78849000  0.22139000  1.0
  O  O238  1  0.37759000  0.64310000  0.15411000  1.0
  O  O239  1  0.63998000  0.64355000  0.16846000  1.0
