# generated using pymatgen
data_UH26C12S2(NO5)2
_symmetry_space_group_name_H-M   'P 1'
_cell_length_a   8.45801000
_cell_length_b   8.98447000
_cell_length_c   16.01730000
_cell_angle_alpha   79.07320000
_cell_angle_beta   74.89830000
_cell_angle_gamma   61.93650000
_symmetry_Int_Tables_number   1
_chemical_formula_structural   UH26C12S2(NO5)2
_chemical_formula_sum   'U2 H52 C24 S4 N4 O20'
_cell_volume   1033.75704375
_cell_formula_units_Z   2
loop_
 _symmetry_equiv_pos_site_id
 _symmetry_equiv_pos_as_xyz
  1  'x, y, z'
loop_
 _atom_site_type_symbol
 _atom_site_label
 _atom_site_symmetry_multiplicity
 _atom_site_fract_x
 _atom_site_fract_y
 _atom_site_fract_z
 _atom_site_occupancy
  U  U0  1  0.50001000  0.00000000  0.50000000  1.0
  U  U1  1  0.00001000  0.49996000  0.00000000  1.0
  H  H2  1  0.41800000  0.48163000  0.42948000  1.0
  H  H3  1  0.32931000  0.01841000  0.07006000  1.0
  H  H4  1  0.58201000  0.51839000  0.57052000  1.0
  H  H5  1  0.67072000  0.98158000  0.92994000  1.0
  H  H6  1  0.46305000  0.65314000  0.43187000  1.0
  H  H7  1  0.54802000  0.84690000  0.06819000  1.0
  H  H8  1  0.53695000  0.34689000  0.56813000  1.0
  H  H9  1  0.45201000  0.15308000  0.93180000  1.0
  H  H10  1  0.19875000  0.54855000  0.57317000  1.0
  H  H11  1  0.32015000  0.95121000  0.92631000  1.0
  H  H12  1  0.80126000  0.45145000  0.42683000  1.0
  H  H13  1  0.67985000  0.04880000  0.07369000  1.0
  H  H14  1  0.13103000  0.71867000  0.49059000  1.0
  H  H15  1  0.34106000  0.78092000  0.00878000  1.0
  H  H16  1  0.86897000  0.28135000  0.50941000  1.0
  H  H17  1  0.65895000  0.21908000  0.99122000  1.0
  H  H18  1  0.91724000  0.92752000  0.59167000  1.0
  H  H19  1  0.43666000  0.57238000  0.90727000  1.0
  H  H20  1  0.08276000  0.07247000  0.40834000  1.0
  H  H21  1  0.56332000  0.42764000  0.09273000  1.0
  H  H22  1  0.96318000  0.76395000  0.67867000  1.0
  H  H23  1  0.40570000  0.73575000  0.82017000  1.0
  H  H24  1  0.03682000  0.23604000  0.32133000  1.0
  H  H25  1  0.59429000  0.26426000  0.17982000  1.0
  H  H26  1  0.99777000  0.09056000  0.67717000  1.0
  H  H27  1  0.76518000  0.40934000  0.82271000  1.0
  H  H28  1  0.00221000  0.90945000  0.32284000  1.0
  H  H29  1  0.23481000  0.59064000  0.17729000  1.0
  H  H30  1  0.79347000  0.07259000  0.72436000  1.0
  H  H31  1  0.59086000  0.42712000  0.77455000  1.0
  H  H32  1  0.20652000  0.92740000  0.27564000  1.0
  H  H33  1  0.40911000  0.57290000  0.22544000  1.0
  H  H34  1  0.16117000  0.82891000  0.77628000  1.0
  H  H35  1  0.76646000  0.67075000  0.72402000  1.0
  H  H36  1  0.83882000  0.17109000  0.22372000  1.0
  H  H37  1  0.23354000  0.32924000  0.27599000  1.0
  H  H38  1  0.94533000  0.84161000  0.82869000  1.0
  H  H39  1  0.61617000  0.65841000  0.67070000  1.0
  H  H40  1  0.05467000  0.15839000  0.17132000  1.0
  H  H41  1  0.38383000  0.34160000  0.32930000  1.0
  H  H42  1  0.03142000  0.98483000  0.91312000  1.0
  H  H43  1  0.92937000  0.51503000  0.58707000  1.0
  H  H44  1  0.96858000  0.01516000  0.08689000  1.0
  H  H45  1  0.07063000  0.48498000  0.41294000  1.0
  H  H46  1  0.85005000  0.14243000  0.86419000  1.0
  H  H47  1  0.85730000  0.35722000  0.63569000  1.0
  H  H48  1  0.14995000  0.85757000  0.13582000  1.0
  H  H49  1  0.14270000  0.64278000  0.36430000  1.0
  H  H50  1  0.07688000  0.11230000  0.81918000  1.0
  H  H51  1  0.00850000  0.38786000  0.68123000  1.0
  H  H52  1  0.92312000  0.88770000  0.18082000  1.0
  H  H53  1  0.99150000  0.61214000  0.31877000  1.0
  C  C54  1  0.42677000  0.55684000  0.47330000  1.0
  C  C55  1  0.45697000  0.94320000  0.02651000  1.0
  C  C56  1  0.57324000  0.44318000  0.52670000  1.0
  C  C57  1  0.54305000  0.05678000  0.97348000  1.0
  C  C58  1  0.23698000  0.64142000  0.52916000  1.0
  C  C59  1  0.40771000  0.85840000  0.97034000  1.0
  C  C60  1  0.76302000  0.35860000  0.47083000  1.0
  C  C61  1  0.59230000  0.14160000  0.02965000  1.0
  C  C62  1  0.98948000  0.87187000  0.64606000  1.0
  C  C63  1  0.50731000  0.62807000  0.85306000  1.0
  C  C64  1  0.01050000  0.12814000  0.35394000  1.0
  C  C65  1  0.49268000  0.37194000  0.14693000  1.0
  C  C66  1  0.94324000  0.00011000  0.70940000  1.0
  C  C67  1  0.65277000  0.49973000  0.79001000  1.0
  C  C68  1  0.05675000  0.99989000  0.29061000  1.0
  C  C69  1  0.34721000  0.50027000  0.20998000  1.0
  C  C70  1  0.01545000  0.91812000  0.79287000  1.0
  C  C71  1  0.72668000  0.58168000  0.70692000  1.0
  C  C72  1  0.98455000  0.08188000  0.20714000  1.0
  C  C73  1  0.27332000  0.41832000  0.29308000  1.0
  C  C74  1  0.99286000  0.04622000  0.85060000  1.0
  C  C75  1  0.88992000  0.45369000  0.64948000  1.0
  C  C76  1  0.00715000  0.95378000  0.14941000  1.0
  C  C77  1  0.11008000  0.54631000  0.35051000  1.0
  S  S78  1  0.23056000  0.78069000  0.59921000  1.0
  S  S79  1  0.61002000  0.71959000  0.90035000  1.0
  S  S80  1  0.76943000  0.21932000  0.40080000  1.0
  S  S81  1  0.38998000  0.28041000  0.09964000  1.0
  N  N82  1  0.53504000  0.96913000  0.31135000  1.0
  N  N83  1  0.81691000  0.53016000  0.18854000  1.0
  N  N84  1  0.46496000  0.03087000  0.68866000  1.0
  N  N85  1  0.18309000  0.46983000  0.81146000  1.0
  O  O86  1  0.33830000  0.22049000  0.48878000  1.0
  O  O87  1  0.04753000  0.27951000  0.01107000  1.0
  O  O88  1  0.66170000  0.77954000  0.51121000  1.0
  O  O89  1  0.95250000  0.72041000  0.98893000  1.0
  O  O90  1  0.42023000  0.93598000  0.37235000  1.0
  O  O91  1  0.72958000  0.56356000  0.12735000  1.0
  O  O92  1  0.57977000  0.06403000  0.62765000  1.0
  O  O93  1  0.27040000  0.43643000  0.87265000  1.0
  O  O94  1  0.63717000  0.01324000  0.33771000  1.0
  O  O95  1  0.98911000  0.48643000  0.16241000  1.0
  O  O96  1  0.36283000  0.98676000  0.66229000  1.0
  O  O97  1  0.01088000  0.51359000  0.83759000  1.0
  O  O98  1  0.54564000  0.96036000  0.23416000  1.0
  O  O99  1  0.74224000  0.53833000  0.26570000  1.0
  O  O100  1  0.45436000  0.03964000  0.76584000  1.0
  O  O101  1  0.25778000  0.46163000  0.73430000  1.0
  O  O102  1  0.25259000  0.92711000  0.53649000  1.0
  O  O103  1  0.71628000  0.57307000  0.96307000  1.0
  O  O104  1  0.74740000  0.07290000  0.46351000  1.0
  O  O105  1  0.28372000  0.42692000  0.03692000  1.0
