# generated using pymatgen
data_ZnH16C24N2O5
_symmetry_space_group_name_H-M   'P 1'
_cell_length_a   7.23516000
_cell_length_b   13.93670000
_cell_length_c   25.21550000
_cell_angle_alpha   92.23330000
_cell_angle_beta   93.84060000
_cell_angle_gamma   96.07420000
_symmetry_Int_Tables_number   1
_chemical_formula_structural   ZnH16C24N2O5
_chemical_formula_sum   'Zn4 H64 C96 N8 O20'
_cell_volume   2519.91390968
_cell_formula_units_Z   4
loop_
 _symmetry_equiv_pos_site_id
 _symmetry_equiv_pos_as_xyz
  1  'x, y, z'
loop_
 _atom_site_type_symbol
 _atom_site_label
 _atom_site_symmetry_multiplicity
 _atom_site_fract_x
 _atom_site_fract_y
 _atom_site_fract_z
 _atom_site_occupancy
  Zn  Zn0  1  0.97429000  0.70541000  0.04276000  1.0
  Zn  Zn1  1  0.02569000  0.29459000  0.95723000  1.0
  Zn  Zn2  1  0.47625000  0.32199000  0.54640000  1.0
  Zn  Zn3  1  0.52373000  0.67799000  0.45360000  1.0
  H  H4  1  0.63121000  0.04166000  0.58222000  1.0
  H  H5  1  0.36883000  0.95834000  0.41778000  1.0
  H  H6  1  0.75206000  0.45471000  0.54692000  1.0
  H  H7  1  0.24792000  0.54528000  0.45308000  1.0
  H  H8  1  0.74157000  0.39150000  0.60232000  1.0
  H  H9  1  0.25841000  0.60849000  0.39768000  1.0
  H  H10  1  0.06625000  0.61581000  0.53716000  1.0
  H  H11  1  0.93379000  0.38418000  0.46284000  1.0
  H  H12  1  0.70922000  0.61901000  0.08096000  1.0
  H  H13  1  0.29080000  0.38100000  0.91905000  1.0
  H  H14  1  0.73317000  0.54805000  0.02704000  1.0
  H  H15  1  0.26681000  0.45194000  0.97297000  1.0
  H  H16  1  0.23631000  0.58374000  0.16533000  1.0
  H  H17  1  0.76364000  0.41626000  0.83467000  1.0
  H  H18  1  0.95929000  0.73364000  0.60260000  1.0
  H  H19  1  0.04074000  0.26634000  0.39740000  1.0
  H  H20  1  0.72970000  0.89306000  0.62391000  1.0
  H  H21  1  0.27030000  0.10693000  0.37609000  1.0
  H  H22  1  0.93193000  0.06338000  0.76609000  1.0
  H  H23  1  0.06810000  0.93662000  0.23391000  1.0
  H  H24  1  0.50442000  0.39765000  0.28246000  1.0
  H  H25  1  0.49558000  0.60236000  0.71754000  1.0
  H  H26  1  0.55970000  0.30616000  0.10603000  1.0
  H  H27  1  0.44027000  0.69384000  0.89396000  1.0
  H  H28  1  0.75238000  0.87297000  0.87840000  1.0
  H  H29  1  0.24759000  0.12704000  0.12160000  1.0
  H  H30  1  0.80377000  0.98086000  0.08086000  1.0
  H  H31  1  0.19623000  0.01914000  0.91914000  1.0
  H  H32  1  0.85117000  0.21158000  0.72239000  1.0
  H  H33  1  0.14886000  0.78842000  0.27761000  1.0
  H  H34  1  0.12690000  0.65664000  0.85128000  1.0
  H  H35  1  0.87309000  0.34337000  0.14872000  1.0
  H  H36  1  0.14634000  0.63365000  0.94908000  1.0
  H  H37  1  0.85366000  0.36636000  0.05092000  1.0
  H  H38  1  0.64382000  0.17199000  0.47923000  1.0
  H  H39  1  0.35616000  0.82800000  0.52076000  1.0
  H  H40  1  0.39809000  0.39539000  0.35371000  1.0
  H  H41  1  0.60194000  0.60462000  0.64629000  1.0
  H  H42  1  0.98528000  0.63664000  0.77781000  1.0
  H  H43  1  0.01472000  0.36336000  0.22220000  1.0
  H  H44  1  0.70045000  0.12897000  0.12391000  1.0
  H  H45  1  0.29955000  0.87103000  0.87608000  1.0
  H  H46  1  0.35199000  0.47431000  0.23151000  1.0
  H  H47  1  0.64795000  0.52567000  0.76849000  1.0
  H  H48  1  0.44644000  0.41728000  0.03996000  1.0
  H  H49  1  0.55357000  0.58275000  0.96004000  1.0
  H  H50  1  0.57468000  0.96892000  0.26217000  1.0
  H  H51  1  0.42530000  0.03109000  0.73783000  1.0
  H  H52  1  0.79658000  0.84454000  0.97542000  1.0
  H  H53  1  0.20340000  0.15546000  0.02458000  1.0
  H  H54  1  0.85965000  0.92885000  0.80352000  1.0
  H  H55  1  0.14036000  0.07115000  0.19647000  1.0
  H  H56  1  0.69118000  0.14493000  0.38315000  1.0
  H  H57  1  0.30882000  0.85507000  0.61684000  1.0
  H  H58  1  0.61942000  0.10381000  0.30260000  1.0
  H  H59  1  0.38062000  0.89620000  0.69740000  1.0
  H  H60  1  0.05217000  0.53776000  0.72723000  1.0
  H  H61  1  0.94783000  0.46222000  0.27278000  1.0
  H  H62  1  0.66312000  0.82084000  0.21711000  1.0
  H  H63  1  0.33689000  0.17917000  0.78289000  1.0
  H  H64  1  0.37009000  0.41264000  0.45007000  1.0
  H  H65  1  0.62992000  0.58736000  0.54994000  1.0
  H  H66  1  0.15609000  0.42216000  0.66222000  1.0
  H  H67  1  0.84390000  0.57781000  0.33779000  1.0
  C  C68  1  0.69877000  0.04539000  0.62231000  1.0
  C  C69  1  0.30125000  0.95460000  0.37770000  1.0
  C  C70  1  0.06156000  0.59953000  0.57894000  1.0
  C  C71  1  0.93847000  0.40046000  0.42107000  1.0
  C  C72  1  0.33039000  0.50727000  0.09827000  1.0
  C  C73  1  0.66960000  0.49273000  0.90173000  1.0
  C  C74  1  0.30895000  0.52313000  0.15274000  1.0
  C  C75  1  0.69101000  0.47688000  0.84727000  1.0
  C  C76  1  0.00120000  0.66479000  0.61520000  1.0
  C  C77  1  0.99883000  0.33519000  0.38481000  1.0
  C  C78  1  0.75151000  0.96286000  0.64557000  1.0
  C  C79  1  0.24851000  0.03713000  0.35443000  1.0
  C  C80  1  0.86545000  0.05768000  0.72584000  1.0
  C  C81  1  0.13459000  0.94231000  0.27416000  1.0
  C  C82  1  0.52523000  0.32644000  0.26639000  1.0
  C  C83  1  0.47479000  0.67357000  0.73361000  1.0
  C  C84  1  0.52074000  0.30894000  0.21125000  1.0
  C  C85  1  0.47927000  0.69107000  0.78875000  1.0
  C  C86  1  0.49170000  0.36813000  0.11899000  1.0
  C  C87  1  0.50830000  0.63188000  0.88101000  1.0
  C  C88  1  0.84491000  0.82088000  0.89210000  1.0
  C  C89  1  0.15508000  0.17913000  0.10790000  1.0
  C  C90  1  0.55770000  0.25236000  0.30065000  1.0
  C  C91  1  0.44232000  0.74764000  0.69935000  1.0
  C  C92  1  0.75110000  0.97904000  0.12032000  1.0
  C  C93  1  0.24892000  0.02096000  0.87968000  1.0
  C  C94  1  0.00027000  0.64549000  0.66948000  1.0
  C  C95  1  0.99976000  0.35449000  0.33052000  1.0
  C  C96  1  0.82026000  0.14106000  0.70165000  1.0
  C  C97  1  0.17978000  0.85894000  0.29835000  1.0
  C  C98  1  0.88012000  0.87758000  0.72212000  1.0
  C  C99  1  0.11991000  0.12242000  0.27789000  1.0
  C  C100  1  0.04776000  0.69881000  0.87689000  1.0
  C  C101  1  0.95223000  0.30120000  0.12311000  1.0
  C  C102  1  0.12226000  0.51279000  0.59578000  1.0
  C  C103  1  0.87773000  0.48719000  0.40422000  1.0
  C  C104  1  0.06252000  0.68628000  0.93113000  1.0
  C  C105  1  0.93745000  0.31373000  0.06887000  1.0
  C  C106  1  0.73472000  0.13548000  0.64991000  1.0
  C  C107  1  0.26531000  0.86452000  0.35009000  1.0
  C  C108  1  0.93736000  0.76705000  0.85600000  1.0
  C  C109  1  0.06263000  0.23296000  0.14400000  1.0
  C  C110  1  0.92509000  0.78095000  0.79828000  1.0
  C  C111  1  0.07490000  0.21905000  0.20172000  1.0
  C  C112  1  0.59168000  0.21913000  0.44947000  1.0
  C  C113  1  0.40830000  0.78086000  0.55052000  1.0
  C  C114  1  0.45805000  0.34371000  0.37908000  1.0
  C  C115  1  0.54197000  0.65630000  0.62092000  1.0
  C  C116  1  0.95845000  0.70616000  0.76274000  1.0
  C  C117  1  0.04155000  0.29384000  0.23726000  1.0
  C  C118  1  0.24403000  0.56936000  0.05821000  1.0
  C  C119  1  0.75593000  0.43065000  0.94179000  1.0
  C  C120  1  0.69527000  0.06149000  0.14434000  1.0
  C  C121  1  0.30475000  0.93852000  0.85566000  1.0
  C  C122  1  0.95437000  0.72080000  0.70810000  1.0
  C  C123  1  0.04566000  0.27920000  0.29190000  1.0
  C  C124  1  0.54591000  0.26700000  0.35863000  1.0
  C  C125  1  0.45410000  0.73300000  0.64137000  1.0
  C  C126  1  0.37594000  0.46138000  0.18973000  1.0
  C  C127  1  0.62402000  0.53862000  0.81027000  1.0
  C  C128  1  0.42575000  0.42994000  0.08193000  1.0
  C  C129  1  0.57424000  0.57007000  0.91807000  1.0
  C  C130  1  0.74160000  0.89198000  0.14666000  1.0
  C  C131  1  0.25842000  0.10803000  0.85334000  1.0
  C  C132  1  0.62504000  0.97285000  0.22241000  1.0
  C  C133  1  0.37496000  0.02716000  0.77759000  1.0
  C  C134  1  0.86663000  0.80485000  0.94603000  1.0
  C  C135  1  0.13335000  0.19515000  0.05396000  1.0
  C  C136  1  0.88526000  0.86839000  0.77739000  1.0
  C  C137  1  0.11476000  0.13161000  0.22261000  1.0
  C  C138  1  0.61570000  0.20446000  0.39574000  1.0
  C  C139  1  0.38429000  0.79553000  0.60426000  1.0
  C  C140  1  0.59340000  0.16374000  0.27781000  1.0
  C  C141  1  0.40663000  0.83627000  0.72219000  1.0
  C  C142  1  0.05271000  0.55609000  0.68563000  1.0
  C  C143  1  0.94729000  0.44389000  0.31438000  1.0
  C  C144  1  0.80079000  0.80260000  0.12041000  1.0
  C  C145  1  0.19922000  0.19742000  0.87959000  1.0
  C  C146  1  0.46592000  0.38158000  0.17344000  1.0
  C  C147  1  0.53406000  0.61842000  0.82655000  1.0
  C  C148  1  0.63649000  0.06055000  0.19636000  1.0
  C  C149  1  0.36353000  0.93947000  0.80364000  1.0
  C  C150  1  0.68791000  0.22535000  0.62367000  1.0
  C  C151  1  0.31209000  0.77464000  0.37633000  1.0
  C  C152  1  0.67431000  0.88928000  0.19746000  1.0
  C  C153  1  0.32569000  0.11073000  0.80254000  1.0
  C  C154  1  0.83289000  0.96756000  0.69790000  1.0
  C  C155  1  0.16714000  0.03243000  0.30210000  1.0
  C  C156  1  0.21134000  0.44976000  0.55779000  1.0
  C  C157  1  0.78865000  0.55022000  0.44221000  1.0
  C  C158  1  0.43947000  0.35438000  0.43324000  1.0
  C  C159  1  0.56054000  0.64562000  0.56676000  1.0
  C  C160  1  0.11286000  0.49054000  0.64937000  1.0
  C  C161  1  0.88713000  0.50944000  0.35064000  1.0
  C  C162  1  0.59410000  0.15210000  0.22226000  1.0
  C  C163  1  0.40592000  0.84791000  0.77773000  1.0
  N  N164  1  0.91441000  0.80531000  0.68849000  1.0
  N  N165  1  0.08561000  0.19469000  0.31151000  1.0
  N  N166  1  0.50305000  0.29279000  0.46815000  1.0
  N  N167  1  0.49694000  0.70720000  0.53185000  1.0
  N  N168  1  0.97372000  0.73872000  0.96538000  1.0
  N  N169  1  0.02625000  0.26129000  0.03462000  1.0
  N  N170  1  0.55724000  0.22338000  0.18994000  1.0
  N  N171  1  0.44276000  0.77663000  0.81006000  1.0
  O  O172  1  0.24276000  0.54877000  0.00897000  1.0
  O  O173  1  0.75718000  0.45123000  0.99102000  1.0
  O  O174  1  0.56840000  0.21172000  0.58256000  1.0
  O  O175  1  0.43161000  0.78826000  0.41744000  1.0
  O  O176  1  0.67375000  0.42956000  0.57493000  1.0
  O  O177  1  0.32622000  0.57043000  0.42506000  1.0
  O  O178  1  0.75216000  0.72108000  0.13719000  1.0
  O  O179  1  0.24785000  0.27893000  0.86280000  1.0
  O  O180  1  0.17031000  0.64168000  0.07824000  1.0
  O  O181  1  0.82968000  0.35833000  0.92176000  1.0
  O  O182  1  0.90224000  0.81925000  0.08015000  1.0
  O  O183  1  0.09775000  0.18077000  0.91984000  1.0
  O  O184  1  0.25846000  0.36919000  0.57570000  1.0
  O  O185  1  0.74150000  0.63077000  0.42429000  1.0
  O  O186  1  0.24330000  0.47864000  0.51237000  1.0
  O  O187  1  0.75670000  0.52134000  0.48763000  1.0
  O  O188  1  0.73438000  0.61549000  0.04302000  1.0
  O  O189  1  0.26559000  0.38451000  0.95698000  1.0
  O  O190  1  0.76658000  0.30584000  0.64209000  1.0
  O  O191  1  0.23339000  0.69415000  0.35791000  1.0
