# generated using pymatgen
data_Zn2H20C23(N4F)2
_symmetry_space_group_name_H-M   'P 1'
_cell_length_a   14.99790000
_cell_length_b   15.06020000
_cell_length_c   15.07040000
_cell_angle_alpha   119.37600000
_cell_angle_beta   106.79800000
_cell_angle_gamma   102.53100000
_symmetry_Int_Tables_number   1
_chemical_formula_structural   Zn2H20C23(N4F)2
_chemical_formula_sum   'Zn4 H40 C46 N16 F4'
_cell_volume   2563.75762161
_cell_formula_units_Z   2
loop_
 _symmetry_equiv_pos_site_id
 _symmetry_equiv_pos_as_xyz
  1  'x, y, z'
loop_
 _atom_site_type_symbol
 _atom_site_label
 _atom_site_symmetry_multiplicity
 _atom_site_fract_x
 _atom_site_fract_y
 _atom_site_fract_z
 _atom_site_occupancy
  Zn  Zn0  1  0.14576000  0.64165000  0.54347000  1.0
  Zn  Zn1  1  0.90895000  0.36433000  0.51167000  1.0
  Zn  Zn2  1  0.99570000  0.63812000  0.66322000  1.0
  Zn  Zn3  1  0.02960000  0.36672000  0.36259000  1.0
  H  H4  1  0.33378000  0.89660000  0.74762000  1.0
  H  H5  1  0.86007000  0.11024000  0.44556000  1.0
  H  H6  1  0.50688000  0.63887000  0.77040000  1.0
  H  H7  1  0.16786000  0.37762000  0.88140000  1.0
  H  H8  1  0.95293000  0.77770000  0.30295000  1.0
  H  H9  1  0.52614000  0.21960000  0.17848000  1.0
  H  H10  1  0.82092000  0.91100000  0.35489000  1.0
  H  H11  1  0.44829000  0.09373000  0.91562000  1.0
  H  H12  1  0.79782000  0.77528000  0.39962000  1.0
  H  H13  1  0.62832000  0.22955000  0.03111000  1.0
  H  H14  1  0.98205000  0.92151000  0.26706000  1.0
  H  H15  1  0.34539000  0.07712000  0.06018000  1.0
  H  H16  1  0.17470000  0.70458000  0.89468000  1.0
  H  H17  1  0.19036000  0.30553000  0.49107000  1.0
  H  H18  1  0.06471000  0.34079000  0.69390000  1.0
  H  H19  1  0.35176000  0.67083000  0.72859000  1.0
  H  H20  1  0.01312000  0.09962000  0.23941000  1.0
  H  H21  1  0.14042000  0.90240000  0.91338000  1.0
  H  H22  1  0.25674000  0.69699000  0.39853000  1.0
  H  H23  1  0.70129000  0.30547000  0.55726000  1.0
  H  H24  1  0.82092000  0.68130000  0.51831000  1.0
  H  H25  1  0.84025000  0.32575000  0.14778000  1.0
  H  H26  1  0.69408000  0.33752000  0.36052000  1.0
  H  H27  1  0.01643000  0.66164000  0.35272000  1.0
  H  H28  1  0.66886000  0.62833000  0.80836000  1.0
  H  H29  1  0.15654000  0.36539000  0.02742000  1.0
  H  H30  1  0.97512000  0.12085000  0.89033000  1.0
  H  H31  1  0.89740000  0.09167000  0.95036000  1.0
  H  H32  1  0.85345000  0.12537000  0.85332000  1.0
  H  H33  1  0.91914000  0.29368000  0.05687000  1.0
  H  H34  1  0.99571000  0.32308000  0.99752000  1.0
  H  H35  1  0.12335000  0.27190000  0.09414000  1.0
  H  H36  1  0.04553000  0.24794000  0.15500000  1.0
  H  H37  1  0.74701000  0.87457000  0.79790000  1.0
  H  H38  1  0.81383000  0.87464000  0.71817000  1.0
  H  H39  1  0.67876000  0.83317000  0.65630000  1.0
  H  H40  1  0.71536000  0.66163000  0.57679000  1.0
  H  H41  1  0.64766000  0.66128000  0.65402000  1.0
  H  H42  1  0.81112000  0.73778000  0.82599000  1.0
  H  H43  1  0.88320000  0.74965000  0.75550000  1.0
  C  C44  1  0.27328000  0.88175000  0.77140000  1.0
  C  C45  1  0.89717000  0.12423000  0.39851000  1.0
  C  C46  1  0.12341000  0.42047000  0.22573000  1.0
  C  C47  1  0.79639000  0.58035000  0.68867000  1.0
  C  C48  1  0.18768000  0.51720000  0.24206000  1.0
  C  C49  1  0.71599000  0.48319000  0.65521000  1.0
  C  C50  1  0.89591000  0.69129000  0.41150000  1.0
  C  C51  1  0.72295000  0.31101000  0.21162000  1.0
  C  C52  1  0.60036000  0.55008000  0.73767000  1.0
  C  C53  1  0.18993000  0.45134000  0.05343000  1.0
  C  C54  1  0.62012000  0.47095000  0.66148000  1.0
  C  C55  1  0.21682000  0.53125000  0.16479000  1.0
  C  C56  1  0.50306000  0.55388000  0.72833000  1.0
  C  C57  1  0.18669000  0.45734000  0.96017000  1.0
  C  C58  1  0.40571000  0.47138000  0.66683000  1.0
  C  C59  1  0.18492000  0.53959000  0.94636000  1.0
  C  C60  1  0.92969000  0.94839000  0.30030000  1.0
  C  C61  1  0.35301000  0.05281000  0.98234000  1.0
  C  C62  1  0.87551000  0.88615000  0.32456000  1.0
  C  C63  1  0.44118000  0.11582000  0.99341000  1.0
  C  C64  1  0.85574000  0.75290000  0.37477000  1.0
  C  C65  1  0.62482000  0.24934000  0.10997000  1.0
  C  C66  1  0.13856000  0.61409000  0.82888000  1.0
  C  C67  1  0.21473000  0.39605000  0.54037000  1.0
  C  C68  1  0.89440000  0.79833000  0.32766000  1.0
  C  C69  1  0.53154000  0.20167000  0.10095000  1.0
  C  C70  1  0.08293000  0.42813000  0.72652000  1.0
  C  C71  1  0.29799000  0.58282000  0.66174000  1.0
  C  C72  1  0.97593000  0.11947000  0.29432000  1.0
  C  C73  1  0.17487000  0.88399000  0.85582000  1.0
  C  C74  1  0.27162000  0.94883000  0.87625000  1.0
  C  C75  1  0.93128000  0.05471000  0.32598000  1.0
  C  C76  1  0.14461000  0.52755000  0.83968000  1.0
  C  C77  1  0.31150000  0.48395000  0.63204000  1.0
  C  C78  1  0.21055000  0.60746000  0.35256000  1.0
  C  C79  1  0.74276000  0.39483000  0.59825000  1.0
  C  C80  1  0.87679000  0.66902000  0.48647000  1.0
  C  C81  1  0.82062000  0.33567000  0.21504000  1.0
  C  C82  1  0.74527000  0.34143000  0.32291000  1.0
  C  C83  1  0.97636000  0.65957000  0.40174000  1.0
  C  C84  1  0.06940000  0.29873000  0.12542000  1.0
  C  C85  1  0.97376000  0.27018000  0.02523000  1.0
  C  C86  1  0.92201000  0.14538000  0.92429000  1.0
  C  C87  1  0.80799000  0.69869000  0.74060000  1.0
  C  C88  1  0.72191000  0.70682000  0.66374000  1.0
  C  C89  1  0.74133000  0.82876000  0.71141000  1.0
  N  N90  1  0.18543000  0.78614000  0.69616000  1.0
  N  N91  1  0.91946000  0.22092000  0.40827000  1.0
  N  N92  1  0.07674000  0.56865000  0.71846000  1.0
  N  N93  1  0.15042000  0.44020000  0.51642000  1.0
  N  N94  1  0.04261000  0.45462000  0.65595000  1.0
  N  N95  1  0.20147000  0.55452000  0.59124000  1.0
  N  N96  1  0.96818000  0.21815000  0.34304000  1.0
  N  N97  1  0.12364000  0.78742000  0.74834000  1.0
  N  N98  1  0.16425000  0.56887000  0.39855000  1.0
  N  N99  1  0.83213000  0.43505000  0.59884000  1.0
  N  N100  1  0.94233000  0.63032000  0.52016000  1.0
  N  N101  1  0.89361000  0.37421000  0.31836000  1.0
  N  N102  1  0.84713000  0.37820000  0.38475000  1.0
  N  N103  1  0.00327000  0.62435000  0.46771000  1.0
  N  N104  1  0.11096000  0.45353000  0.32050000  1.0
  N  N105  1  0.86507000  0.54961000  0.65466000  1.0
  F  F106  1  0.54078000  0.36769000  0.56893000  1.0
  F  F107  1  0.27286000  0.64310000  0.21485000  1.0
  F  F108  1  0.38811000  0.36115000  0.61951000  1.0
  F  F109  1  0.20780000  0.64478000  0.03806000  1.0
