# generated using pymatgen
data_CdH10C9SN2O3
_symmetry_space_group_name_H-M   'P 1'
_cell_length_a   5.69180000
_cell_length_b   12.82560000
_cell_length_c   16.51090000
_cell_angle_alpha   89.99820000
_cell_angle_beta   89.99900000
_cell_angle_gamma   94.89040000
_symmetry_Int_Tables_number   1
_chemical_formula_structural   CdH10C9SN2O3
_chemical_formula_sum   'Cd4 H40 C36 S4 N8 O12'
_cell_volume   1200.92027281
_cell_formula_units_Z   4
loop_
 _symmetry_equiv_pos_site_id
 _symmetry_equiv_pos_as_xyz
  1  'x, y, z'
loop_
 _atom_site_type_symbol
 _atom_site_label
 _atom_site_symmetry_multiplicity
 _atom_site_fract_x
 _atom_site_fract_y
 _atom_site_fract_z
 _atom_site_occupancy
  Cd  Cd0  1  0.14340000  0.17196000  0.63916000  1.0
  Cd  Cd1  1  0.85657000  0.32804000  0.13915000  1.0
  Cd  Cd2  1  0.85659000  0.82804000  0.36084000  1.0
  Cd  Cd3  1  0.14342000  0.67196000  0.86085000  1.0
  H  H4  1  0.39781000  0.19973000  0.06180000  1.0
  H  H5  1  0.60215000  0.30027000  0.56180000  1.0
  H  H6  1  0.60218000  0.80027000  0.93819000  1.0
  H  H7  1  0.39784000  0.69973000  0.43820000  1.0
  H  H8  1  0.21508000  0.16351000  0.92562000  1.0
  H  H9  1  0.78489000  0.33649000  0.42561000  1.0
  H  H10  1  0.78492000  0.83650000  0.07438000  1.0
  H  H11  1  0.21511000  0.66351000  0.57440000  1.0
  H  H12  1  0.84149000  0.31839000  0.81868000  1.0
  H  H13  1  0.15849000  0.18160000  0.31869000  1.0
  H  H14  1  0.15851000  0.68162000  0.18132000  1.0
  H  H15  1  0.84152000  0.81839000  0.68131000  1.0
  H  H16  1  0.00029000  0.34993000  0.95860000  1.0
  H  H17  1  0.99968000  0.15006000  0.45861000  1.0
  H  H18  1  0.99970000  0.65008000  0.04140000  1.0
  H  H19  1  0.00032000  0.84993000  0.54139000  1.0
  H  H20  1  0.76818000  0.29833000  0.68330000  1.0
  H  H21  1  0.23179000  0.20167000  0.18330000  1.0
  H  H22  1  0.23182000  0.70167000  0.31670000  1.0
  H  H23  1  0.76821000  0.79833000  0.81671000  1.0
  H  H24  1  0.15628000  0.44382000  0.63366000  1.0
  H  H25  1  0.84372000  0.05618000  0.13368000  1.0
  H  H26  1  0.84373000  0.55618000  0.36633000  1.0
  H  H27  1  0.15628000  0.94383000  0.86632000  1.0
  H  H28  1  0.01235000  0.44534000  0.72847000  1.0
  H  H29  1  0.98767000  0.05466000  0.22848000  1.0
  H  H30  1  0.98769000  0.55466000  0.27152000  1.0
  H  H31  1  0.01233000  0.94534000  0.77152000  1.0
  H  H32  1  0.86123000  0.57929000  0.63992000  1.0
  H  H33  1  0.13878000  0.92071000  0.13992000  1.0
  H  H34  1  0.13878000  0.42071000  0.36008000  1.0
  H  H35  1  0.86123000  0.07929000  0.86007000  1.0
  H  H36  1  0.63070000  0.47976000  0.65782000  1.0
  H  H37  1  0.36931000  0.02025000  0.15781000  1.0
  H  H38  1  0.36931000  0.52024000  0.34219000  1.0
  H  H39  1  0.63070000  0.97976000  0.84218000  1.0
  H  H40  1  0.78244000  0.48470000  0.56310000  1.0
  H  H41  1  0.21754000  0.01531000  0.06309000  1.0
  H  H42  1  0.21755000  0.51531000  0.43690000  1.0
  H  H43  1  0.78245000  0.98470000  0.93690000  1.0
  C  C44  1  0.61663000  0.04523000  0.61728000  1.0
  C  C45  1  0.38334000  0.45476000  0.11728000  1.0
  C  C46  1  0.38336000  0.95476000  0.38272000  1.0
  C  C47  1  0.61665000  0.54524000  0.88273000  1.0
  C  C48  1  0.49224000  0.22343000  0.00661000  1.0
  C  C49  1  0.50772000  0.27658000  0.50661000  1.0
  C  C50  1  0.50775000  0.77658000  0.99339000  1.0
  C  C51  1  0.49227000  0.72342000  0.49339000  1.0
  C  C52  1  0.39043000  0.20389000  0.93110000  1.0
  C  C53  1  0.60954000  0.29611000  0.43109000  1.0
  C  C54  1  0.60957000  0.79611000  0.06890000  1.0
  C  C55  1  0.39046000  0.70389000  0.56891000  1.0
  C  C56  1  0.51275000  0.23950000  0.86168000  1.0
  C  C57  1  0.48723000  0.26049000  0.36168000  1.0
  C  C58  1  0.48724000  0.76050000  0.13832000  1.0
  C  C59  1  0.51278000  0.73951000  0.63833000  1.0
  C  C60  1  0.73793000  0.29072000  0.87092000  1.0
  C  C61  1  0.26204000  0.20927000  0.37092000  1.0
  C  C62  1  0.26206000  0.70929000  0.12908000  1.0
  C  C63  1  0.73796000  0.79072000  0.62908000  1.0
  C  C64  1  0.82835000  0.30745000  0.94850000  1.0
  C  C65  1  0.17163000  0.19255000  0.44851000  1.0
  C  C66  1  0.17165000  0.69256000  0.05150000  1.0
  C  C67  1  0.82837000  0.80745000  0.55149000  1.0
  C  C68  1  0.39648000  0.22490000  0.78027000  1.0
  C  C69  1  0.60351000  0.27509000  0.28027000  1.0
  C  C70  1  0.60353000  0.77511000  0.21973000  1.0
  C  C71  1  0.39650000  0.72490000  0.71973000  1.0
  C  C72  1  0.98430000  0.42846000  0.66355000  1.0
  C  C73  1  0.01571000  0.07153000  0.16356000  1.0
  C  C74  1  0.01572000  0.57154000  0.33644000  1.0
  C  C75  1  0.98430000  0.92847000  0.83644000  1.0
  C  C76  1  0.80364000  0.49671000  0.62873000  1.0
  C  C77  1  0.19636000  0.00329000  0.12873000  1.0
  C  C78  1  0.19637000  0.50329000  0.37127000  1.0
  C  C79  1  0.80364000  0.99671000  0.87127000  1.0
  S  S80  1  0.35498000  0.99119000  0.63815000  1.0
  S  S81  1  0.64498000  0.50880000  0.13816000  1.0
  S  S82  1  0.64501000  0.00880000  0.36185000  1.0
  S  S83  1  0.35501000  0.49120000  0.86185000  1.0
  N  N84  1  0.80673000  0.08399000  0.60058000  1.0
  N  N85  1  0.19325000  0.41601000  0.10057000  1.0
  N  N86  1  0.19326000  0.91600000  0.39942000  1.0
  N  N87  1  0.80674000  0.58399000  0.89943000  1.0
  N  N88  1  0.70726000  0.27474000  0.01523000  1.0
  N  N89  1  0.29271000  0.22527000  0.51524000  1.0
  N  N90  1  0.29273000  0.72527000  0.98477000  1.0
  N  N91  1  0.70729000  0.77473000  0.48476000  1.0
  O  O92  1  0.18864000  0.17946000  0.77873000  1.0
  O  O93  1  0.81135000  0.32052000  0.27872000  1.0
  O  O94  1  0.81136000  0.82054000  0.22127000  1.0
  O  O95  1  0.18865000  0.67947000  0.72128000  1.0
  O  O96  1  0.50444000  0.25810000  0.71647000  1.0
  O  O97  1  0.49553000  0.24189000  0.21647000  1.0
  O  O98  1  0.49555000  0.74190000  0.28353000  1.0
  O  O99  1  0.50447000  0.75810000  0.78353000  1.0
  O  O100  1  0.91584000  0.31861000  0.65184000  1.0
  O  O101  1  0.08415000  0.18138000  0.15184000  1.0
  O  O102  1  0.08416000  0.68138000  0.34815000  1.0
  O  O103  1  0.91586000  0.81862000  0.84816000  1.0
