# generated using pymatgen
data_CuH4C2IN2
_symmetry_space_group_name_H-M   'P 1'
_cell_length_a   7.72797000
_cell_length_b   8.23529000
_cell_length_c   8.63655000
_cell_angle_alpha   108.04900000
_cell_angle_beta   97.10250000
_cell_angle_gamma   102.99500000
_symmetry_Int_Tables_number   1
_chemical_formula_structural   CuH4C2IN2
_chemical_formula_sum   'Cu4 H16 C8 I4 N8'
_cell_volume   498.00765828
_cell_formula_units_Z   4
loop_
 _symmetry_equiv_pos_site_id
 _symmetry_equiv_pos_as_xyz
  1  'x, y, z'
loop_
 _atom_site_type_symbol
 _atom_site_label
 _atom_site_symmetry_multiplicity
 _atom_site_fract_x
 _atom_site_fract_y
 _atom_site_fract_z
 _atom_site_occupancy
  Cu  Cu0  1  0.59914000  0.51485000  0.64019000  1.0
  Cu  Cu1  1  0.40085000  0.48514000  0.35980000  1.0
  Cu  Cu2  1  0.84325000  0.51377000  0.44237000  1.0
  Cu  Cu3  1  0.15674000  0.48622000  0.55762000  1.0
  H  H4  1  0.30715000  0.13312000  0.05081000  1.0
  H  H5  1  0.69284000  0.86688000  0.94918000  1.0
  H  H6  1  0.28679000  0.96180000  0.87502000  1.0
  H  H7  1  0.71321000  0.03820000  0.12498000  1.0
  H  H8  1  0.73706000  0.39158000  0.92486000  1.0
  H  H9  1  0.26294000  0.60842000  0.07515000  1.0
  H  H10  1  0.65027000  0.15895000  0.88308000  1.0
  H  H11  1  0.34973000  0.84105000  0.11692000  1.0
  H  H12  1  0.62329000  0.31401000  0.06780000  1.0
  H  H13  1  0.37671000  0.68599000  0.93220000  1.0
  H  H14  1  0.88776000  0.18799000  0.62324000  1.0
  H  H15  1  0.11224000  0.81201000  0.37675000  1.0
  H  H16  1  0.91199000  0.15242000  0.81850000  1.0
  H  H17  1  0.08802000  0.84758000  0.18150000  1.0
  H  H18  1  0.93306000  0.98856000  0.63988000  1.0
  H  H19  1  0.06695000  0.01144000  0.36012000  1.0
  C  C20  1  0.62561000  0.28954000  0.93573000  1.0
  C  C21  1  0.37440000  0.71046000  0.06428000  1.0
  C  C22  1  0.45248000  0.29071000  0.84387000  1.0
  C  C23  1  0.54752000  0.70930000  0.15614000  1.0
  C  C24  1  0.15783000  0.22198000  0.74015000  1.0
  C  C25  1  0.84217000  0.77802000  0.25984000  1.0
  C  C26  1  0.96123000  0.13304000  0.70210000  1.0
  C  C27  1  0.03878000  0.86696000  0.29790000  1.0
  I  I28  1  0.54390000  0.21826000  0.36377000  1.0
  I  I29  1  0.45609000  0.78173000  0.63623000  1.0
  I  I30  1  0.94489000  0.62873000  0.76228000  1.0
  I  I31  1  0.05510000  0.37126000  0.23772000  1.0
  N  N32  1  0.42880000  0.38454000  0.74755000  1.0
  N  N33  1  0.57121000  0.61546000  0.25246000  1.0
  N  N34  1  0.24418000  0.34193000  0.68266000  1.0
  N  N35  1  0.75583000  0.65808000  0.31734000  1.0
  N  N36  1  0.28493000  0.18884000  0.84293000  1.0
  N  N37  1  0.71507000  0.81117000  0.15707000  1.0
  N  N38  1  0.24251000  0.07099000  0.92787000  1.0
  N  N39  1  0.75749000  0.92901000  0.07212000  1.0
