# generated using pymatgen
data_SmH15(C3O2)6
_symmetry_space_group_name_H-M   'P 1'
_cell_length_a   8.17469000
_cell_length_b   9.96933000
_cell_length_c   12.60930000
_cell_angle_alpha   92.41710000
_cell_angle_beta   96.05390000
_cell_angle_gamma   93.06420000
_symmetry_Int_Tables_number   1
_chemical_formula_structural   SmH15(C3O2)6
_chemical_formula_sum   'Sm2 H30 C36 O24'
_cell_volume   1019.23445394
_cell_formula_units_Z   2
loop_
 _symmetry_equiv_pos_site_id
 _symmetry_equiv_pos_as_xyz
  1  'x, y, z'
loop_
 _atom_site_type_symbol
 _atom_site_label
 _atom_site_symmetry_multiplicity
 _atom_site_fract_x
 _atom_site_fract_y
 _atom_site_fract_z
 _atom_site_occupancy
  Sm  Sm0  1  0.41584000  0.60978000  0.67429000  1.0
  Sm  Sm1  1  0.58416000  0.39022000  0.32571000  1.0
  H  H2  1  0.48236000  0.08852000  0.72750000  1.0
  H  H3  1  0.51764000  0.91148000  0.27250000  1.0
  H  H4  1  0.27743000  0.33449000  0.96377000  1.0
  H  H5  1  0.72257000  0.66551000  0.03623000  1.0
  H  H6  1  0.27332000  0.90148000  0.98455000  1.0
  H  H7  1  0.72668000  0.09852000  0.01545000  1.0
  H  H8  1  0.26594000  0.97339000  0.16629000  1.0
  H  H9  1  0.73406000  0.02661000  0.83372000  1.0
  H  H10  1  0.07647000  0.95105000  0.08007000  1.0
  H  H11  1  0.92353000  0.04895000  0.91993000  1.0
  H  H12  1  0.13508000  0.12701000  0.28835000  1.0
  H  H13  1  0.86493000  0.87300000  0.71165000  1.0
  H  H14  1  0.95027000  0.11917000  0.19713000  1.0
  H  H15  1  0.04973000  0.88083000  0.80287000  1.0
  H  H16  1  0.91235000  0.72230000  0.34548000  1.0
  H  H17  1  0.08765000  0.27770000  0.65452000  1.0
  H  H18  1  0.63846000  0.90409000  0.58263000  1.0
  H  H19  1  0.36154000  0.09591000  0.41737000  1.0
  H  H20  1  0.60803000  0.24281000  0.65458000  1.0
  H  H21  1  0.39197000  0.75719000  0.34542000  1.0
  H  H22  1  0.89056000  0.15338000  0.37235000  1.0
  H  H23  1  0.10945000  0.84661000  0.62765000  1.0
  H  H24  1  0.08691000  0.59741000  0.75849000  1.0
  H  H25  1  0.91309000  0.40259000  0.24151000  1.0
  H  H26  1  0.06265000  0.53486000  0.64113000  1.0
  H  H27  1  0.93735000  0.46514000  0.35887000  1.0
  H  H28  1  0.70845000  0.70474000  0.84168000  1.0
  H  H29  1  0.29154000  0.29526000  0.15831000  1.0
  H  H30  1  0.60850000  0.57813000  0.87437000  1.0
  H  H31  1  0.39150000  0.42187000  0.12563000  1.0
  C  C32  1  0.40522000  0.85162000  0.80071000  1.0
  C  C33  1  0.59478000  0.14838000  0.19929000  1.0
  C  C34  1  0.38040000  0.98546000  0.85224000  1.0
  C  C35  1  0.61960000  0.01454000  0.14776000  1.0
  C  C36  1  0.42642000  0.10068000  0.80136000  1.0
  C  C37  1  0.57358000  0.89932000  0.19864000  1.0
  C  C38  1  0.39094000  0.22685000  0.84240000  1.0
  C  C39  1  0.60906000  0.77315000  0.15759000  1.0
  C  C40  1  0.42546000  0.35248000  0.78579000  1.0
  C  C41  1  0.57453000  0.64752000  0.21421000  1.0
  C  C42  1  0.31168000  0.23640000  0.93516000  1.0
  C  C43  1  0.68832000  0.76360000  0.06484000  1.0
  C  C44  1  0.27225000  0.12069000  0.98838000  1.0
  C  C45  1  0.72776000  0.87930000  0.01163000  1.0
  C  C46  1  0.30473000  0.99409000  0.94671000  1.0
  C  C47  1  0.69527000  0.00591000  0.05329000  1.0
  C  C48  1  0.15438000  0.02221000  0.13541000  1.0
  C  C49  1  0.84562000  0.97779000  0.86459000  1.0
  C  C50  1  0.05803000  0.06405000  0.22643000  1.0
  C  C51  1  0.94197000  0.93595000  0.77357000  1.0
  C  C52  1  0.91382000  0.93813000  0.35001000  1.0
  C  C53  1  0.08618000  0.06186000  0.64999000  1.0
  C  C54  1  0.87042000  0.81112000  0.38521000  1.0
  C  C55  1  0.12958000  0.18888000  0.61479000  1.0
  C  C56  1  0.77138000  0.79777000  0.46815000  1.0
  C  C57  1  0.22863000  0.20223000  0.53185000  1.0
  C  C58  1  0.71742000  0.65835000  0.49702000  1.0
  C  C59  1  0.28258000  0.34165000  0.50298000  1.0
  C  C60  1  0.71642000  0.91314000  0.51804000  1.0
  C  C61  1  0.28358000  0.08685000  0.48196000  1.0
  C  C62  1  0.75971000  0.03969000  0.48170000  1.0
  C  C63  1  0.24029000  0.96030000  0.51830000  1.0
  C  C64  1  0.70182000  0.16564000  0.52868000  1.0
  C  C65  1  0.29818000  0.83436000  0.47132000  1.0
  C  C66  1  0.85808000  0.05323000  0.39767000  1.0
  C  C67  1  0.14192000  0.94677000  0.60233000  1.0
  O  O68  1  0.33503000  0.74542000  0.83235000  1.0
  O  O69  1  0.66497000  0.25458000  0.16765000  1.0
  O  O70  1  0.49282000  0.84687000  0.72231000  1.0
  O  O71  1  0.50718000  0.15313000  0.27769000  1.0
  O  O72  1  0.51727000  0.35543000  0.70944000  1.0
  O  O73  1  0.48273000  0.64457000  0.29056000  1.0
  O  O74  1  0.35818000  0.45868000  0.81535000  1.0
  O  O75  1  0.64182000  0.54132000  0.18465000  1.0
  O  O76  1  0.19838000  0.14065000  0.08089000  1.0
  O  O77  1  0.80162000  0.85935000  0.91911000  1.0
  O  O78  1  0.00785000  0.93823000  0.26717000  1.0
  O  O79  1  0.99215000  0.06177000  0.73283000  1.0
  O  O80  1  0.75185000  0.55970000  0.43727000  1.0
  O  O81  1  0.24814000  0.44031000  0.56272000  1.0
  O  O82  1  0.63770000  0.64489000  0.57730000  1.0
  O  O83  1  0.36230000  0.35511000  0.42270000  1.0
  O  O84  1  0.69669000  0.27151000  0.47971000  1.0
  O  O85  1  0.30331000  0.72848000  0.52029000  1.0
  O  O86  1  0.65891000  0.15738000  0.62605000  1.0
  O  O87  1  0.34109000  0.84262000  0.37396000  1.0
  O  O88  1  0.10330000  0.61550000  0.68489000  1.0
  O  O89  1  0.89670000  0.38450000  0.31511000  1.0
  O  O90  1  0.66105000  0.61500000  0.81513000  1.0
  O  O91  1  0.33895000  0.38500000  0.18487000  1.0
