# generated using pymatgen
data_KCu4H59C26S4(N2O11)2
_symmetry_space_group_name_H-M   'P 1'
_cell_length_a   13.43960000
_cell_length_b   13.43970000
_cell_length_c   14.34550000
_cell_angle_alpha   104.90900000
_cell_angle_beta   104.90900000
_cell_angle_gamma   97.15930000
_symmetry_Int_Tables_number   1
_chemical_formula_structural   KCu4H59C26S4(N2O11)2
_chemical_formula_sum   'K2 Cu8 H118 C52 S8 N8 O44'
_cell_volume   2368.56302087
_cell_formula_units_Z   2
loop_
 _symmetry_equiv_pos_site_id
 _symmetry_equiv_pos_as_xyz
  1  'x, y, z'
loop_
 _atom_site_type_symbol
 _atom_site_label
 _atom_site_symmetry_multiplicity
 _atom_site_fract_x
 _atom_site_fract_y
 _atom_site_fract_z
 _atom_site_occupancy
  K  K0  1  0.53816000  0.52808000  0.84853000  1.0
  K  K1  1  0.52808000  0.53815000  0.34853000  1.0
  Cu  Cu2  1  0.35735000  0.04130000  0.65500000  1.0
  Cu  Cu3  1  0.04130000  0.35735000  0.15500000  1.0
  Cu  Cu4  1  0.22115000  0.93067000  0.77537000  1.0
  Cu  Cu5  1  0.93067000  0.22115000  0.27537000  1.0
  Cu  Cu6  1  0.01297000  0.73833000  0.67821000  1.0
  Cu  Cu7  1  0.73833000  0.01297000  0.17820000  1.0
  Cu  Cu8  1  0.18269000  0.83733000  0.56163000  1.0
  Cu  Cu9  1  0.83733000  0.18269000  0.06163000  1.0
  H  H10  1  0.15695000  0.94740000  0.40363000  1.0
  H  H11  1  0.94739000  0.15695000  0.90362000  1.0
  H  H12  1  0.28760000  0.96667000  0.39398000  1.0
  H  H13  1  0.96667000  0.28760000  0.89397000  1.0
  H  H14  1  0.18528000  0.11394000  0.52431000  1.0
  H  H15  1  0.11394000  0.18528000  0.02430000  1.0
  H  H16  1  0.24375000  0.14086000  0.43286000  1.0
  H  H17  1  0.14086000  0.24376000  0.93286000  1.0
  H  H18  1  0.60700000  0.14883000  0.57998000  1.0
  H  H19  1  0.14884000  0.60701000  0.07998000  1.0
  H  H20  1  0.56293000  0.22536000  0.67665000  1.0
  H  H21  1  0.22536000  0.56293000  0.17666000  1.0
  H  H22  1  0.42667000  0.07004000  0.47325000  1.0
  H  H23  1  0.07004000  0.42667000  0.97325000  1.0
  H  H24  1  0.45010000  0.20937000  0.49939000  1.0
  H  H25  1  0.20937000  0.45010000  0.99939000  1.0
  H  H26  1  0.22150000  0.20762000  0.68634000  1.0
  H  H27  1  0.20762000  0.22150000  0.18634000  1.0
  H  H28  1  0.27614000  0.34621000  0.73114000  1.0
  H  H29  1  0.34620000  0.27613000  0.23113000  1.0
  H  H30  1  0.43155000  0.30091000  0.66325000  1.0
  H  H31  1  0.30091000  0.43155000  0.16325000  1.0
  H  H32  1  0.31354000  0.29527000  0.57222000  1.0
  H  H33  1  0.29527000  0.31354000  0.07221000  1.0
  H  H34  1  0.05050000  0.98414000  0.88764000  1.0
  H  H35  1  0.98414000  0.05049000  0.38762000  1.0
  H  H36  1  0.05266000  0.86870000  0.92615000  1.0
  H  H37  1  0.86871000  0.05266000  0.42615000  1.0
  H  H38  1  0.86771000  0.86924000  0.85552000  1.0
  H  H39  1  0.86924000  0.86771000  0.35551000  1.0
  H  H40  1  0.89149000  0.90732000  0.75218000  1.0
  H  H41  1  0.90731000  0.89149000  0.25218000  1.0
  H  H42  1  0.85948000  0.53222000  0.67603000  1.0
  H  H43  1  0.53221000  0.85948000  0.17603000  1.0
  H  H44  1  0.92158000  0.51828000  0.79637000  1.0
  H  H45  1  0.51828000  0.92158000  0.29637000  1.0
  H  H46  1  0.96493000  0.71258000  0.87257000  1.0
  H  H47  1  0.71258000  0.96493000  0.37257000  1.0
  H  H48  1  0.82728000  0.66223000  0.82489000  1.0
  H  H49  1  0.66223000  0.82728000  0.32489000  1.0
  H  H50  1  0.82814000  0.84112000  0.59640000  1.0
  H  H51  1  0.84112000  0.82814000  0.09639000  1.0
  H  H52  1  0.69844000  0.76686000  0.53676000  1.0
  H  H53  1  0.76685000  0.69845000  0.03675000  1.0
  H  H54  1  0.75685000  0.63610000  0.64012000  1.0
  H  H55  1  0.63609000  0.75685000  0.14011000  1.0
  H  H56  1  0.72997000  0.75521000  0.70625000  1.0
  H  H57  1  0.75521000  0.72997000  0.20625000  1.0
  H  H58  1  0.50296000  0.93535000  0.77063000  1.0
  H  H59  1  0.93535000  0.50296000  0.27064000  1.0
  H  H60  1  0.42253000  0.81182000  0.74812000  1.0
  H  H61  1  0.81182000  0.42253000  0.24813000  1.0
  H  H62  1  0.48733000  0.90306000  0.93459000  1.0
  H  H63  1  0.90307000  0.48732000  0.43459000  1.0
  H  H64  1  0.44464000  0.01724000  0.91159000  1.0
  H  H65  1  0.01724000  0.44463000  0.41159000  1.0
  H  H66  1  0.38806000  0.11122000  0.01175000  1.0
  H  H67  1  0.11122000  0.38806000  0.51175000  1.0
  H  H68  1  0.28782000  0.10152000  0.07063000  1.0
  H  H69  1  0.10152000  0.28782000  0.57062000  1.0
  H  H70  1  0.23257000  0.91312000  0.99241000  1.0
  H  H71  1  0.91312000  0.23256000  0.49240000  1.0
  H  H72  1  0.37113000  0.94532000  0.05359000  1.0
  H  H73  1  0.94532000  0.37112000  0.55359000  1.0
  H  H74  1  0.32936000  0.75516000  0.01628000  1.0
  H  H75  1  0.75516000  0.32936000  0.51628000  1.0
  H  H76  1  0.43135000  0.74432000  0.95627000  1.0
  H  H77  1  0.74431000  0.43135000  0.45626000  1.0
  H  H78  1  0.29991000  0.74468000  0.79340000  1.0
  H  H79  1  0.74468000  0.29991000  0.29340000  1.0
  H  H80  1  0.20414000  0.76353000  0.85635000  1.0
  H  H81  1  0.76352000  0.20414000  0.35635000  1.0
  H  H82  1  0.08134000  0.58145000  0.55022000  1.0
  H  H83  1  0.58145000  0.08134000  0.05022000  1.0
  H  H84  1  0.18468000  0.60458000  0.66325000  1.0
  H  H85  1  0.60458000  0.18468000  0.16325000  1.0
  H  H86  1  0.24349000  0.55868000  0.50345000  1.0
  H  H87  1  0.55867000  0.24350000  0.00346000  1.0
  H  H88  1  0.31469000  0.67641000  0.60075000  1.0
  H  H89  1  0.67641000  0.31469000  0.10075000  1.0
  H  H90  1  0.12474000  0.77009000  0.31127000  1.0
  H  H91  1  0.77009000  0.12475000  0.81126000  1.0
  H  H92  1  0.99986000  0.68673000  0.27679000  1.0
  H  H93  1  0.68673000  0.99987000  0.77678000  1.0
  H  H94  1  0.06055000  0.61925000  0.42261000  1.0
  H  H95  1  0.61925000  0.06055000  0.92260000  1.0
  H  H96  1  0.13158000  0.58752000  0.33376000  1.0
  H  H97  1  0.58751000  0.13158000  0.83376000  1.0
  H  H98  1  0.44502000  0.71979000  0.55440000  1.0
  H  H99  1  0.71977000  0.44502000  0.05439000  1.0
  H  H100  1  0.39522000  0.83870000  0.57456000  1.0
  H  H101  1  0.83868000  0.39522000  0.07456000  1.0
  H  H102  1  0.31241000  0.64519000  0.38643000  1.0
  H  H103  1  0.64519000  0.31240000  0.88643000  1.0
  H  H104  1  0.28805000  0.77307000  0.38693000  1.0
  H  H105  1  0.77307000  0.28805000  0.88693000  1.0
  H  H106  1  0.98994000  0.90440000  0.62020000  1.0
  H  H107  1  0.90439000  0.98994000  0.12019000  1.0
  H  H108  1  0.02445000  0.99708000  0.55864000  1.0
  H  H109  1  0.99707000  0.02445000  0.05863000  1.0
  H  H110  1  0.03610000  0.04028000  0.69103000  1.0
  H  H111  1  0.04028000  0.03610000  0.19102000  1.0
  H  H112  1  0.55334000  0.00449000  0.61793000  1.0
  H  H113  1  0.00449000  0.55334000  0.11793000  1.0
  H  H114  1  0.07777000  0.58147000  0.78191000  1.0
  H  H115  1  0.58148000  0.07777000  0.28191000  1.0
  H  H116  1  0.26242000  0.14491000  0.90335000  1.0
  H  H117  1  0.14492000  0.26242000  0.40335000  1.0
  H  H118  1  0.97438000  0.78021000  0.41964000  1.0
  H  H119  1  0.78021000  0.97438000  0.91963000  1.0
  H  H120  1  0.55578000  0.42509000  0.59889000  1.0
  H  H121  1  0.42509000  0.55578000  0.09889000  1.0
  H  H122  1  0.42432000  0.55985000  0.66445000  1.0
  H  H123  1  0.55986000  0.42432000  0.16443000  1.0
  H  H124  1  0.41089000  0.48048000  0.53936000  1.0
  H  H125  1  0.48049000  0.41089000  0.03936000  1.0
  H  H126  1  0.51135000  0.59732000  0.59815000  1.0
  H  H127  1  0.59732000  0.51135000  0.09814000  1.0
  C  C128  1  0.24008000  0.98275000  0.44654000  1.0
  C  C129  1  0.98275000  0.24008000  0.94654000  1.0
  C  C130  1  0.24931000  0.10026000  0.49109000  1.0
  C  C131  1  0.10026000  0.24931000  0.99109000  1.0
  C  C132  1  0.54249000  0.15134000  0.61418000  1.0
  C  C133  1  0.15134000  0.54249000  0.11418000  1.0
  C  C134  1  0.44176000  0.14489000  0.53280000  1.0
  C  C135  1  0.14490000  0.44176000  0.03280000  1.0
  C  C136  1  0.29411000  0.26737000  0.70925000  1.0
  C  C137  1  0.26737000  0.29410000  0.20924000  1.0
  C  C138  1  0.34989000  0.25744000  0.62828000  1.0
  C  C139  1  0.25744000  0.34988000  0.12828000  1.0
  C  C140  1  0.03199000  0.89743000  0.85903000  1.0
  C  C141  1  0.89743000  0.03199000  0.35902000  1.0
  C  C142  1  0.91508000  0.86021000  0.80319000  1.0
  C  C143  1  0.86021000  0.91508000  0.30318000  1.0
  C  C144  1  0.92134000  0.57041000  0.74868000  1.0
  C  C145  1  0.57041000  0.92134000  0.24868000  1.0
  C  C146  1  0.89952000  0.67478000  0.80285000  1.0
  C  C147  1  0.67478000  0.89952000  0.30285000  1.0
  C  C148  1  0.77893000  0.76250000  0.57555000  1.0
  C  C149  1  0.76250000  0.77893000  0.07555000  1.0
  C  C150  1  0.78381000  0.72194000  0.66608000  1.0
  C  C151  1  0.72193000  0.78382000  0.16608000  1.0
  C  C152  1  0.42788000  0.89769000  0.77607000  1.0
  C  C153  1  0.89768000  0.42788000  0.27608000  1.0
  C  C154  1  0.42756000  0.93103000  0.88524000  1.0
  C  C155  1  0.93103000  0.42755000  0.38524000  1.0
  C  C156  1  0.30895000  0.06766000  0.00133000  1.0
  C  C157  1  0.06766000  0.30895000  0.50133000  1.0
  C  C158  1  0.30836000  0.95182000  0.98974000  1.0
  C  C159  1  0.95182000  0.30836000  0.48974000  1.0
  C  C160  1  0.34603000  0.73058000  0.94366000  1.0
  C  C161  1  0.73058000  0.34602000  0.44366000  1.0
  C  C162  1  0.28890000  0.78014000  0.86687000  1.0
  C  C163  1  0.78014000  0.28889000  0.36687000  1.0
  C  C164  1  0.15573000  0.63522000  0.59916000  1.0
  C  C165  1  0.63522000  0.15573000  0.09915000  1.0
  C  C166  1  0.23806000  0.63846000  0.54452000  1.0
  C  C167  1  0.63846000  0.23806000  0.04451000  1.0
  C  C168  1  0.06968000  0.72969000  0.34117000  1.0
  C  C169  1  0.72969000  0.06968000  0.84116000  1.0
  C  C170  1  0.11762000  0.65231000  0.39042000  1.0
  C  C171  1  0.65231000  0.11762000  0.89042000  1.0
  C  C172  1  0.40846000  0.77402000  0.51775000  1.0
  C  C173  1  0.77401000  0.40846000  0.01775000  1.0
  C  C174  1  0.30584000  0.72125000  0.43408000  1.0
  C  C175  1  0.72125000  0.30584000  0.93408000  1.0
  C  C176  1  0.04606000  0.97659000  0.62998000  1.0
  C  C177  1  0.97658000  0.04607000  0.12997000  1.0
  C  C178  1  0.46769000  0.52961000  0.61151000  1.0
  C  C179  1  0.52962000  0.46769000  0.11150000  1.0
  S  S180  1  0.37657000  0.25414000  0.82376000  1.0
  S  S181  1  0.25414000  0.37656000  0.32376000  1.0
  S  S182  1  0.82190000  0.67749000  0.48218000  1.0
  S  S183  1  0.67748000  0.82190000  0.98218000  1.0
  S  S184  1  0.29941000  0.59008000  0.89537000  1.0
  S  S185  1  0.59007000  0.29941000  0.39538000  1.0
  S  S186  1  0.50635000  0.83203000  0.47201000  1.0
  S  S187  1  0.83202000  0.50636000  0.97202000  1.0
  N  N188  1  0.35027000  0.14710000  0.57392000  1.0
  N  N189  1  0.14710000  0.35027000  0.07392000  1.0
  N  N190  1  0.89133000  0.74802000  0.73961000  1.0
  N  N191  1  0.74802000  0.89133000  0.23960000  1.0
  N  N192  1  0.32091000  0.89577000  0.89164000  1.0
  N  N193  1  0.89577000  0.32090000  0.39163000  1.0
  N  N194  1  0.21628000  0.70315000  0.47478000  1.0
  N  N195  1  0.70315000  0.21628000  0.97478000  1.0
  O  O196  1  0.27533000  0.93696000  0.52455000  1.0
  O  O197  1  0.93696000  0.27533000  0.02454000  1.0
  O  O198  1  0.53186000  0.06711000  0.65752000  1.0
  O  O199  1  0.06711000  0.53186000  0.15752000  1.0
  O  O200  1  0.40392000  0.14842000  0.79608000  1.0
  O  O201  1  0.14843000  0.40392000  0.29608000  1.0
  O  O202  1  0.31346000  0.26008000  0.89449000  1.0
  O  O203  1  0.26009000  0.31346000  0.39449000  1.0
  O  O204  1  0.46975000  0.33852000  0.85931000  1.0
  O  O205  1  0.33853000  0.46974000  0.35931000  1.0
  O  O206  1  0.09050000  0.86095000  0.79320000  1.0
  O  O207  1  0.86094000  0.09050000  0.29320000  1.0
  O  O208  1  0.01887000  0.58530000  0.72522000  1.0
  O  O209  1  0.58530000  0.01887000  0.22522000  1.0
  O  O210  1  0.91715000  0.64730000  0.53989000  1.0
  O  O211  1  0.64730000  0.91715000  0.03988000  1.0
  O  O212  1  0.84747000  0.73806000  0.41643000  1.0
  O  O213  1  0.73806000  0.84747000  0.91642000  1.0
  O  O214  1  0.73732000  0.58486000  0.42865000  1.0
  O  O215  1  0.58486000  0.73732000  0.92865000  1.0
  O  O216  1  0.34154000  0.92613000  0.71499000  1.0
  O  O217  1  0.92613000  0.34154000  0.21499000  1.0
  O  O218  1  0.23527000  0.07761000  0.91437000  1.0
  O  O219  1  0.07761000  0.23527000  0.41437000  1.0
  O  O220  1  0.32883000  0.55498000  0.80184000  1.0
  O  O221  1  0.55497000  0.32882000  0.30184000  1.0
  O  O222  1  0.15108000  0.96269000  0.65266000  1.0
  O  O223  1  0.96269000  0.15108000  0.15265000  1.0
  O  O224  1  0.18466000  0.57237000  0.87802000  1.0
  O  O225  1  0.57238000  0.18465000  0.37802000  1.0
  O  O226  1  0.13816000  0.73887000  0.63422000  1.0
  O  O227  1  0.73887000  0.13816000  0.13422000  1.0
  O  O228  1  0.04289000  0.80970000  0.41289000  1.0
  O  O229  1  0.80970000  0.04289000  0.91288000  1.0
  O  O230  1  0.59025000  0.89858000  0.56513000  1.0
  O  O231  1  0.89858000  0.59024000  0.06513000  1.0
  O  O232  1  0.45535000  0.89290000  0.40981000  1.0
  O  O233  1  0.89289000  0.45535000  0.90981000  1.0
  O  O234  1  0.54456000  0.74399000  0.41658000  1.0
  O  O235  1  0.74399000  0.54457000  0.91660000  1.0
  O  O236  1  0.53802000  0.47095000  0.65552000  1.0
  O  O237  1  0.47096000  0.53802000  0.15552000  1.0
  O  O238  1  0.35473000  0.54888000  0.97543000  1.0
  O  O239  1  0.54888000  0.35472000  0.47544000  1.0
