# generated using pymatgen
data_Zn4H82C78N34O3
_symmetry_space_group_name_H-M   'P 1'
_cell_length_a   19.80680000
_cell_length_b   20.34890000
_cell_length_c   21.03160000
_cell_angle_alpha   106.24700000
_cell_angle_beta   106.50500000
_cell_angle_gamma   112.74300000
_symmetry_Int_Tables_number   1
_chemical_formula_structural   Zn4H82C78N34O3
_chemical_formula_sum   'Zn4 H82 C78 N34 O3'
_cell_volume   6728.69598945
_cell_formula_units_Z   1
loop_
 _symmetry_equiv_pos_site_id
 _symmetry_equiv_pos_as_xyz
  1  'x, y, z'
loop_
 _atom_site_type_symbol
 _atom_site_label
 _atom_site_symmetry_multiplicity
 _atom_site_fract_x
 _atom_site_fract_y
 _atom_site_fract_z
 _atom_site_occupancy
  Zn  Zn0  1  0.59175000  0.61290000  0.52070000  1.0
  Zn  Zn1  1  0.38097000  0.41039000  0.52248000  1.0
  Zn  Zn2  1  0.49411000  0.61168000  0.63179000  1.0
  Zn  Zn3  1  0.47365000  0.41582000  0.40361000  1.0
  H  H4  1  0.78237000  0.71406000  0.65650000  1.0
  H  H5  1  0.39695000  0.25316000  0.54109000  1.0
  H  H6  1  0.01250000  0.64863000  0.53301000  1.0
  H  H7  1  0.86573000  0.44125000  0.32524000  1.0
  H  H8  1  0.88310000  0.53199000  0.32279000  1.0
  H  H9  1  0.97973000  0.46505000  0.30268000  1.0
  H  H10  1  0.89509000  0.43115000  0.44679000  1.0
  H  H11  1  0.01386000  0.56684000  0.33135000  1.0
  H  H12  1  0.65394000  0.13556000  0.51773000  1.0
  H  H13  1  0.63774000  0.01298000  0.49838000  1.0
  H  H14  1  0.53722000  0.96462000  0.42668000  1.0
  H  H15  1  0.22838000  0.39442000  0.39497000  1.0
  H  H16  1  0.45013000  0.08411000  0.56586000  1.0
  H  H17  1  0.45121000  0.97587000  0.57014000  1.0
  H  H18  1  0.56975000  0.14078000  0.65254000  1.0
  H  H19  1  0.58906000  0.03997000  0.65632000  1.0
  H  H20  1  0.62332000  0.40390000  0.35567000  1.0
  H  H21  1  0.63435000  0.59522000  0.87805000  1.0
  H  H22  1  0.74745000  0.61443000  0.21227000  1.0
  H  H23  1  0.70578000  0.62817000  0.31319000  1.0
  H  H24  1  0.52368000  0.39170000  0.06970000  1.0
  H  H25  1  0.48142000  0.40412000  0.16997000  1.0
  H  H26  1  0.51759000  0.80191000  0.65954000  1.0
  H  H27  1  0.45370000  0.37594000  0.65192000  1.0
  H  H28  1  0.02291000  0.86378000  0.87389000  1.0
  H  H29  1  0.89010000  0.79138000  0.76288000  1.0
  H  H30  1  0.10832000  0.10497000  0.25273000  1.0
  H  H31  1  0.90833000  0.73599000  0.98004000  1.0
  H  H32  1  0.00906000  0.96783000  0.15273000  1.0
  H  H33  1  0.76243000  0.61244000  0.56644000  1.0
  H  H34  1  0.59985000  0.38044000  0.49984000  1.0
  H  H35  1  0.63980000  0.63192000  0.76890000  1.0
  H  H36  1  0.65727000  0.64859000  0.40097000  1.0
  H  H37  1  0.37272000  0.24470000  0.26112000  1.0
  H  H38  1  0.11450000  0.46548000  0.49639000  1.0
  H  H39  1  0.04320000  0.43443000  0.52478000  1.0
  H  H40  1  0.03952000  0.72661000  0.46272000  1.0
  H  H41  1  0.95999000  0.65001000  0.38887000  1.0
  H  H42  1  0.13575000  0.68046000  0.59236000  1.0
  H  H43  1  0.12135000  0.58777000  0.55985000  1.0
  H  H44  1  0.08723000  0.68313000  0.36385000  1.0
  H  H45  1  0.14267000  0.63227000  0.37503000  1.0
  H  H46  1  0.27212000  0.76087000  0.45938000  1.0
  H  H47  1  0.22478000  0.75996000  0.37317000  1.0
  H  H48  1  0.20085000  0.21935000  0.35464000  1.0
  H  H49  1  0.21891000  0.81350000  0.45226000  1.0
  H  H50  1  0.93813000  0.35047000  0.39239000  1.0
  H  H51  1  0.00948000  0.38280000  0.36502000  1.0
  H  H52  1  0.70914000  0.04720000  0.66694000  1.0
  H  H53  1  0.73252000  0.12974000  0.65425000  1.0
  H  H54  1  0.49267000  0.65374000  0.80434000  1.0
  H  H55  1  0.53644000  0.62206000  0.86131000  1.0
  H  H56  1  0.70926000  0.22729000  0.71269000  1.0
  H  H57  1  0.68051000  0.24834000  0.64363000  1.0
  H  H58  1  0.58257000  0.08345000  0.38903000  1.0
  H  H59  1  0.53582000  0.71262000  0.45598000  1.0
  H  H60  1  0.54111000  0.13277000  0.42100000  1.0
  H  H61  1  0.33754000  0.07345000  0.50061000  1.0
  H  H62  1  0.29839000  0.97027000  0.44775000  1.0
  H  H63  1  0.27598000  0.99050000  0.33162000  1.0
  H  H64  1  0.22118000  0.01913000  0.37616000  1.0
  H  H65  1  0.31363000  0.09293000  0.38485000  1.0
  H  H66  1  0.42066000  0.94182000  0.38270000  1.0
  H  H67  1  0.31753000  0.87437000  0.35554000  1.0
  H  H68  1  0.35220000  0.76899000  0.36359000  1.0
  H  H69  1  0.37451000  0.80071000  0.29744000  1.0
  H  H70  1  0.43501000  0.42118000  0.25916000  1.0
  H  H71  1  0.45473000  0.83370000  0.38506000  1.0
  H  H72  1  0.72242000  0.65136000  0.00858000  1.0
  H  H73  1  0.71415000  0.59021000  0.05421000  1.0
  H  H74  1  0.38914000  0.29788000  0.77348000  1.0
  H  H75  1  0.39649000  0.34426000  0.71993000  1.0
  H  H76  1  0.47264000  0.27076000  0.83700000  1.0
  H  H77  1  0.52098000  0.31885000  0.93138000  1.0
  H  H78  1  0.36009000  0.13886000  0.26245000  1.0
  H  H79  1  0.33570000  0.05036000  0.20311000  1.0
  H  H80  1  0.25953000  0.98898000  0.08882000  1.0
  H  H81  1  0.34920000  0.64107000  0.55341000  1.0
  H  H82  1  0.16078000  0.90864000  0.03939000  1.0
  H  H83  1  0.77807000  0.61860000  0.90156000  1.0
  H  H84  1  0.72257000  0.59393000  0.81296000  1.0
  H  H85  1  0.97660000  0.51790000  0.52727000  1.0
  C  C86  1  0.73582000  0.68842000  0.67370000  1.0
  C  C87  1  0.53136000  0.72351000  0.50779000  1.0
  C  C88  1  0.48557000  0.47838000  0.30303000  1.0
  C  C89  1  0.44105000  0.29282000  0.52888000  1.0
  C  C90  1  0.33125000  0.57980000  0.52226000  1.0
  C  C91  1  0.55853000  0.53025000  0.30444000  1.0
  C  C92  1  0.25788000  0.51991000  0.45851000  1.0
  C  C93  1  0.52874000  0.78715000  0.55329000  1.0
  C  C94  1  0.26617000  0.19333000  0.28738000  1.0
  C  C95  1  0.95123000  0.48761000  0.46688000  1.0
  C  C96  1  0.00313000  0.62537000  0.47521000  1.0
  C  C97  1  0.51355000  0.29701000  0.52833000  1.0
  C  C98  1  0.08426000  0.62279000  0.47967000  1.0
  C  C99  1  0.18729000  0.52494000  0.42995000  1.0
  C  C100  1  0.92876000  0.53953000  0.43377000  1.0
  C  C101  1  0.49388000  0.55385000  0.75262000  1.0
  C  C102  1  0.01318000  0.47141000  0.44516000  1.0
  C  C103  1  0.05702000  0.53767000  0.42099000  1.0
  C  C104  1  0.99083000  0.51806000  0.34611000  1.0
  C  C105  1  0.91098000  0.50481000  0.35146000  1.0
  C  C106  1  0.12777000  0.53321000  0.41781000  1.0
  C  C107  1  0.85760000  0.53660000  0.44236000  1.0
  C  C108  1  0.49787000  0.48565000  0.75299000  1.0
  C  C109  1  0.79704000  0.52649000  0.45145000  1.0
  C  C110  1  0.60510000  0.13404000  0.62145000  1.0
  C  C111  1  0.58810000  0.09086000  0.48975000  1.0
  C  C112  1  0.57852000  0.00996000  0.48367000  1.0
  C  C113  1  0.64472000  0.45278000  0.40806000  1.0
  C  C114  1  0.53472000  0.85504000  0.54456000  1.0
  C  C115  1  0.55355000  0.12031000  0.54241000  1.0
  C  C116  1  0.60988000  0.05773000  0.61728000  1.0
  C  C117  1  0.54654000  0.98748000  0.53757000  1.0
  C  C118  1  0.46118000  0.98008000  0.52211000  1.0
  C  C119  1  0.72516000  0.51403000  0.45863000  1.0
  C  C120  1  0.46442000  0.05825000  0.52127000  1.0
  C  C121  1  0.54171000  0.91488000  0.53867000  1.0
  C  C122  1  0.55332000  0.19190000  0.54373000  1.0
  C  C123  1  0.54047000  0.24457000  0.53884000  1.0
  C  C124  1  0.58805000  0.51934000  0.24837000  1.0
  C  C125  1  0.46080000  0.43402000  0.67746000  1.0
  C  C126  1  0.53997000  0.45082000  0.17993000  1.0
  C  C127  1  0.56355000  0.44274000  0.12359000  1.0
  C  C128  1  0.63731000  0.50335000  0.13344000  1.0
  C  C129  1  0.68930000  0.56833000  0.20369000  1.0
  C  C130  1  0.59874000  0.59410000  0.37525000  1.0
  C  C131  1  0.66501000  0.57612000  0.25992000  1.0
  C  C132  1  0.63600000  0.53361000  0.94544000  1.0
  C  C133  1  0.60263000  0.53919000  0.88030000  1.0
  C  C134  1  0.59575000  0.45954000  0.94849000  1.0
  C  C135  1  0.53307000  0.47395000  0.81713000  1.0
  C  C136  1  0.49740000  0.39890000  0.81750000  1.0
  C  C137  1  0.71561000  0.55977000  0.51578000  1.0
  C  C138  1  0.53010000  0.39162000  0.88192000  1.0
  C  C139  1  0.82257000  0.71895000  0.80539000  1.0
  C  C140  1  0.83008000  0.70000000  0.86628000  1.0
  C  C141  1  0.26780000  0.45341000  0.44058000  1.0
  C  C142  1  0.90396000  0.74611000  0.93110000  1.0
  C  C143  1  0.97235000  0.80592000  0.93434000  1.0
  C  C144  1  0.96887000  0.81766000  0.87111000  1.0
  C  C145  1  0.89412000  0.77644000  0.80921000  1.0
  C  C146  1  0.18117000  0.99039000  0.13347000  1.0
  C  C147  1  0.23889000  0.06507000  0.19538000  1.0
  C  C148  1  0.09715000  0.95572000  0.11800000  1.0
  C  C149  1  0.54522000  0.35829000  0.50795000  1.0
  C  C150  1  0.21232000  0.10959000  0.23506000  1.0
  C  C151  1  0.12906000  0.07185000  0.22103000  1.0
  C  C152  1  0.52240000  0.76908000  0.61214000  1.0
  C  C153  1  0.07366000  0.99621000  0.16574000  1.0
  C  C154  1  0.66310000  0.64488000  0.73044000  1.0
  C  C155  1  0.74466000  0.68341000  0.74074000  1.0
  C  C156  1  0.14040000  0.68548000  0.40275000  1.0
  C  C157  1  0.21857000  0.75923000  0.42329000  1.0
  C  C158  1  0.33016000  0.02961000  0.44996000  1.0
  C  C159  1  0.28268000  0.03338000  0.38174000  1.0
  C  C160  1  0.38084000  0.88993000  0.38732000  1.0
  C  C161  1  0.39149000  0.81938000  0.35678000  1.0
  C  C162  1  0.33932000  0.25059000  0.29331000  1.0
  C  C163  1  0.25137000  0.23921000  0.34034000  1.0
  N  N164  1  0.65683000  0.65663000  0.62865000  1.0
  N  N165  1  0.60269000  0.44972000  0.01135000  1.0
  N  N166  1  0.04528000  0.86132000  0.00020000  1.0
  N  N167  1  0.43123000  0.34696000  0.50934000  1.0
  N  N168  1  0.03148000  0.89058000  0.05412000  1.0
  N  N169  1  0.45775000  0.54283000  0.68247000  1.0
  N  N170  1  0.59295000  0.46277000  0.43378000  1.0
  N  N171  1  0.43670000  0.46715000  0.63548000  1.0
  N  N172  1  0.63582000  0.52863000  0.50012000  1.0
  N  N173  1  0.49477000  0.38761000  0.49606000  1.0
  N  N174  1  0.61106000  0.62898000  0.66298000  1.0
  N  N175  1  0.34069000  0.47291000  0.49136000  1.0
  N  N176  1  0.55394000  0.57984000  0.41248000  1.0
  N  N177  1  0.07286000  0.47637000  0.50976000  1.0
  N  N178  1  0.98559000  0.67638000  0.44517000  1.0
  N  N179  1  0.13586000  0.63839000  0.55247000  1.0
  N  N180  1  0.96877000  0.39431000  0.37966000  1.0
  N  N181  1  0.69159000  0.07070000  0.63326000  1.0
  N  N182  1  0.52384000  0.62484000  0.81209000  1.0
  N  N183  1  0.68612000  0.20525000  0.65658000  1.0
  N  N184  1  0.54720000  0.08415000  0.41602000  1.0
  N  N185  1  0.70535000  0.59647000  0.00602000  1.0
  N  N186  1  0.52294000  0.70124000  0.60254000  1.0
  N  N187  1  0.42767000  0.33041000  0.75648000  1.0
  N  N188  1  0.49151000  0.31921000  0.88336000  1.0
  N  N189  1  0.32160000  0.09431000  0.21040000  1.0
  N  N190  1  0.20775000  0.95266000  0.08984000  1.0
  N  N191  1  0.76334000  0.63924000  0.86406000  1.0
  N  N192  1  0.36374000  0.32289000  0.34506000  1.0
  N  N193  1  0.30951000  0.31598000  0.37481000  1.0
  N  N194  1  0.52809000  0.67258000  0.53791000  1.0
  N  N195  1  0.48355000  0.50722000  0.36865000  1.0
  N  N196  1  0.37958000  0.55048000  0.54159000  1.0
  N  N197  1  0.65641000  0.50880000  0.07495000  1.0
  O  O198  1  0.13435000  0.68933000  0.46966000  1.0
  O  O199  1  0.40931000  0.04785000  0.45434000  1.0
  O  O200  1  0.39225000  0.90939000  0.46266000  1.0
