# generated using pymatgen
data_ZnH6C4NClO4
_symmetry_space_group_name_H-M   'P 1'
_cell_length_a   8.50297000
_cell_length_b   8.55656000
_cell_length_c   9.84900000
_cell_angle_alpha   90.00010000
_cell_angle_beta   90.00010000
_cell_angle_gamma   90.00000000
_symmetry_Int_Tables_number   1
_chemical_formula_structural   ZnH6C4NClO4
_chemical_formula_sum   'Zn4 H24 C16 N4 Cl4 O16'
_cell_volume   716.57554771
_cell_formula_units_Z   4
loop_
 _symmetry_equiv_pos_site_id
 _symmetry_equiv_pos_as_xyz
  1  'x, y, z'
loop_
 _atom_site_type_symbol
 _atom_site_label
 _atom_site_symmetry_multiplicity
 _atom_site_fract_x
 _atom_site_fract_y
 _atom_site_fract_z
 _atom_site_occupancy
  Zn  Zn0  1  0.82253000  0.15370000  0.94164000  1.0
  Zn  Zn1  1  0.32253000  0.34630000  0.05836000  1.0
  Zn  Zn2  1  0.17747000  0.65370000  0.55836000  1.0
  Zn  Zn3  1  0.67747000  0.84630000  0.44164000  1.0
  H  H4  1  0.79188000  0.61737000  0.99391000  1.0
  H  H5  1  0.29188000  0.88263000  0.00609000  1.0
  H  H6  1  0.20812000  0.11737000  0.50609000  1.0
  H  H7  1  0.70812000  0.38263000  0.49391000  1.0
  H  H8  1  0.89300000  0.51359000  0.77644000  1.0
  H  H9  1  0.39300000  0.98641000  0.22356000  1.0
  H  H10  1  0.10700000  0.01359000  0.72356000  1.0
  H  H11  1  0.60700000  0.48641000  0.27644000  1.0
  H  H12  1  0.99020000  0.68477000  0.82676000  1.0
  H  H13  1  0.49020000  0.81523000  0.17324000  1.0
  H  H14  1  0.00980000  0.18477000  0.67324000  1.0
  H  H15  1  0.50980000  0.31523000  0.32676000  1.0
  H  H16  1  0.51461000  0.60696000  0.93880000  1.0
  H  H17  1  0.01461000  0.89303000  0.06120000  1.0
  H  H18  1  0.48539000  0.10696000  0.56120000  1.0
  H  H19  1  0.98539000  0.39304000  0.43880000  1.0
  H  H20  1  0.61449000  0.47983000  0.83705000  1.0
  H  H21  1  0.11449000  0.02017000  0.16295000  1.0
  H  H22  1  0.38551000  0.97983000  0.66295000  1.0
  H  H23  1  0.88551000  0.52017000  0.33705000  1.0
  H  H24  1  0.55212000  0.65380000  0.77711000  1.0
  H  H25  1  0.05212000  0.84620000  0.22289000  1.0
  H  H26  1  0.44788000  0.15380000  0.72289000  1.0
  H  H27  1  0.94788000  0.34620000  0.27711000  1.0
  C  C28  1  0.72509000  0.84514000  0.92589000  1.0
  C  C29  1  0.22509000  0.65486000  0.07411000  1.0
  C  C30  1  0.27491000  0.34514000  0.57411000  1.0
  C  C31  1  0.77491000  0.15486000  0.42589000  1.0
  C  C32  1  0.75173000  0.67055000  0.89843000  1.0
  C  C33  1  0.25173000  0.82945000  0.10157000  1.0
  C  C34  1  0.24827000  0.17055000  0.60157000  1.0
  C  C35  1  0.74827000  0.32945000  0.39843000  1.0
  C  C36  1  0.87671000  0.64027000  0.79049000  1.0
  C  C37  1  0.37671000  0.85973000  0.20952000  1.0
  C  C38  1  0.12329000  0.14027000  0.70951000  1.0
  C  C39  1  0.62329000  0.35973000  0.29049000  1.0
  C  C40  1  0.84257000  0.70961000  0.65274000  1.0
  C  C41  1  0.34257000  0.79039000  0.34726000  1.0
  C  C42  1  0.15743000  0.20961000  0.84726000  1.0
  C  C43  1  0.65743000  0.29039000  0.15274000  1.0
  N  N44  1  0.59810000  0.59734000  0.86123000  1.0
  N  N45  1  0.09810000  0.90266000  0.13877000  1.0
  N  N46  1  0.40190000  0.09734000  0.63877000  1.0
  N  N47  1  0.90190000  0.40266000  0.36123000  1.0
  Cl  Cl48  1  0.71918000  0.26157000  0.75560000  1.0
  Cl  Cl49  1  0.21918000  0.23843000  0.24440000  1.0
  Cl  Cl50  1  0.28082000  0.76157000  0.74440000  1.0
  Cl  Cl51  1  0.78082000  0.73843000  0.25560000  1.0
  O  O52  1  0.59074000  0.90025000  0.93256000  1.0
  O  O53  1  0.09074000  0.59975000  0.06744000  1.0
  O  O54  1  0.40926000  0.40025000  0.56744000  1.0
  O  O55  1  0.90926000  0.09975000  0.43256000  1.0
  O  O56  1  0.85541000  0.92414000  0.94006000  1.0
  O  O57  1  0.35541000  0.57586000  0.05994000  1.0
  O  O58  1  0.14459000  0.42414000  0.55994000  1.0
  O  O59  1  0.64459000  0.07586000  0.44006000  1.0
  O  O60  1  0.94542000  0.70633000  0.55969000  1.0
  O  O61  1  0.44542000  0.79367000  0.44031000  1.0
  O  O62  1  0.05458000  0.20633000  0.94031000  1.0
  O  O63  1  0.55458000  0.29367000  0.05969000  1.0
  O  O64  1  0.70553000  0.76735000  0.63113000  1.0
  O  O65  1  0.20553000  0.73265000  0.36887000  1.0
  O  O66  1  0.29447000  0.26735000  0.86887000  1.0
  O  O67  1  0.79447000  0.23265000  0.13113000  1.0
