# generated using pymatgen
data_ZnH13C22N3O4
_symmetry_space_group_name_H-M   'P 1'
_cell_length_a   17.94400000
_cell_length_b   18.51900000
_cell_length_c   18.51880000
_cell_angle_alpha   110.09200000
_cell_angle_beta   108.84400000
_cell_angle_gamma   108.84300000
_symmetry_Int_Tables_number   1
_chemical_formula_structural   ZnH13C22N3O4
_chemical_formula_sum   'Zn6 H78 C132 N18 O24'
_cell_volume   4773.44001906
_cell_formula_units_Z   6
loop_
 _symmetry_equiv_pos_site_id
 _symmetry_equiv_pos_as_xyz
  1  'x, y, z'
loop_
 _atom_site_type_symbol
 _atom_site_label
 _atom_site_symmetry_multiplicity
 _atom_site_fract_x
 _atom_site_fract_y
 _atom_site_fract_z
 _atom_site_occupancy
  Zn  Zn0  1  0.84649000  0.51451000  0.59204000  1.0
  Zn  Zn1  1  0.33197000  0.07753000  0.48548000  1.0
  Zn  Zn2  1  0.25445000  0.40796000  0.92247000  1.0
  Zn  Zn3  1  0.15351000  0.48548000  0.40796000  1.0
  Zn  Zn4  1  0.66803000  0.92247000  0.51452000  1.0
  Zn  Zn5  1  0.74555000  0.59204000  0.07753000  1.0
  H  H6  1  0.86623000  0.37332000  0.63928000  1.0
  H  H7  1  0.49290000  0.26596000  0.62668000  1.0
  H  H8  1  0.22695000  0.36072000  0.73404000  1.0
  H  H9  1  0.13377000  0.62668000  0.36072000  1.0
  H  H10  1  0.50710000  0.73404000  0.37332000  1.0
  H  H11  1  0.77305000  0.63928000  0.26596000  1.0
  H  H12  1  0.98941000  0.33260000  0.68068000  1.0
  H  H13  1  0.65680000  0.34808000  0.66740000  1.0
  H  H14  1  0.30873000  0.31932000  0.65192000  1.0
  H  H15  1  0.01059000  0.66740000  0.31932000  1.0
  H  H16  1  0.34320000  0.65192000  0.33260000  1.0
  H  H17  1  0.69127000  0.68068000  0.34808000  1.0
  H  H18  1  0.12900000  0.41037000  0.67749000  1.0
  H  H19  1  0.71863000  0.26713000  0.58964000  1.0
  H  H20  1  0.45151000  0.32251000  0.73288000  1.0
  H  H21  1  0.87100000  0.58963000  0.32251000  1.0
  H  H22  1  0.28137000  0.73287000  0.41036000  1.0
  H  H23  1  0.54849000  0.67749000  0.26712000  1.0
  H  H24  1  0.14497000  0.52834000  0.63613000  1.0
  H  H25  1  0.61662000  0.10779000  0.47166000  1.0
  H  H26  1  0.50884000  0.36388000  0.89222000  1.0
  H  H27  1  0.85503000  0.47166000  0.36387000  1.0
  H  H28  1  0.38338000  0.89221000  0.52834000  1.0
  H  H29  1  0.49116000  0.63612000  0.10778000  1.0
  H  H30  1  0.24432000  0.77848000  0.66978000  1.0
  H  H31  1  0.46584000  0.89131000  0.22153000  1.0
  H  H32  1  0.57453000  0.33023000  0.10869000  1.0
  H  H33  1  0.75568000  0.22152000  0.33022000  1.0
  H  H34  1  0.53416000  0.10869000  0.77847000  1.0
  H  H35  1  0.42547000  0.66977000  0.89131000  1.0
  H  H36  1  0.35100000  0.90428000  0.67153000  1.0
  H  H37  1  0.44673000  0.76727000  0.09572000  1.0
  H  H38  1  0.67945000  0.32845000  0.23273000  1.0
  H  H39  1  0.64900000  0.09572000  0.32847000  1.0
  H  H40  1  0.55327000  0.23273000  0.90428000  1.0
  H  H41  1  0.32055000  0.67155000  0.76727000  1.0
  H  H42  1  0.13041000  0.92025000  0.51004000  1.0
  H  H43  1  0.21017000  0.58980000  0.07974000  1.0
  H  H44  1  0.62037000  0.48994000  0.41021000  1.0
  H  H45  1  0.86959000  0.07975000  0.48996000  1.0
  H  H46  1  0.78983000  0.41020000  0.92026000  1.0
  H  H47  1  0.37963000  0.51006000  0.58979000  1.0
  H  H48  1  0.02151000  0.79288000  0.50567000  1.0
  H  H49  1  0.22863000  0.71279000  0.20711000  1.0
  H  H50  1  0.51584000  0.49432000  0.28723000  1.0
  H  H51  1  0.97849000  0.20712000  0.49433000  1.0
  H  H52  1  0.77137000  0.28721000  0.79289000  1.0
  H  H53  1  0.48416000  0.50568000  0.71277000  1.0
  H  H54  1  0.79646000  0.59136000  0.47632000  1.0
  H  H55  1  0.20511000  0.88495000  0.40864000  1.0
  H  H56  1  0.32014000  0.52368000  0.11504000  1.0
  H  H57  1  0.20354000  0.40864000  0.52368000  1.0
  H  H58  1  0.79489000  0.11505000  0.59136000  1.0
  H  H59  1  0.67986000  0.47631000  0.88496000  1.0
  H  H60  1  0.69547000  0.65612000  0.45554000  1.0
  H  H61  1  0.03936000  0.79941000  0.34389000  1.0
  H  H62  1  0.23992000  0.54445000  0.20056000  1.0
  H  H63  1  0.30453000  0.34388000  0.54446000  1.0
  H  H64  1  0.96064000  0.20059000  0.65611000  1.0
  H  H65  1  0.76008000  0.45555000  0.79944000  1.0
  H  H66  1  0.92095000  0.91548000  0.64430000  1.0
  H  H67  1  0.00546000  0.72879000  0.08451000  1.0
  H  H68  1  0.27665000  0.35571000  0.27118000  1.0
  H  H69  1  0.07905000  0.08452000  0.35571000  1.0
  H  H70  1  0.99454000  0.27121000  0.91549000  1.0
  H  H71  1  0.72335000  0.64429000  0.72882000  1.0
  H  H72  1  0.02386000  0.85181000  0.66502000  1.0
  H  H73  1  0.17204000  0.81320000  0.14819000  1.0
  H  H74  1  0.35884000  0.33499000  0.18679000  1.0
  H  H75  1  0.97614000  0.14819000  0.33498000  1.0
  H  H76  1  0.82796000  0.18680000  0.85181000  1.0
  H  H77  1  0.64116000  0.66501000  0.81321000  1.0
  H  H78  1  0.14280000  0.63806000  0.60144000  1.0
  H  H79  1  0.50474000  0.96339000  0.36194000  1.0
  H  H80  1  0.54136000  0.39857000  0.03662000  1.0
  H  H81  1  0.85720000  0.36194000  0.39856000  1.0
  H  H82  1  0.49526000  0.03661000  0.63806000  1.0
  H  H83  1  0.45864000  0.60143000  0.96338000  1.0
  C  C84  1  0.92845000  0.40410000  0.63803000  1.0
  C  C85  1  0.52435000  0.23394000  0.59591000  1.0
  C  C86  1  0.29042000  0.36197000  0.76606000  1.0
  C  C87  1  0.07155000  0.59590000  0.36197000  1.0
  C  C88  1  0.47565000  0.76606000  0.40409000  1.0
  C  C89  1  0.70958000  0.63803000  0.23394000  1.0
  C  C90  1  0.99625000  0.38190000  0.66047000  1.0
  C  C91  1  0.61435000  0.27858000  0.61811000  1.0
  C  C92  1  0.33578000  0.33954000  0.72143000  1.0
  C  C93  1  0.00375000  0.61810000  0.33953000  1.0
  C  C94  1  0.38565000  0.72142000  0.38189000  1.0
  C  C95  1  0.66422000  0.66046000  0.27857000  1.0
  C  C96  1  0.07477000  0.42615000  0.65919000  1.0
  C  C97  1  0.64862000  0.23305000  0.57386000  1.0
  C  C98  1  0.41558000  0.34081000  0.76695000  1.0
  C  C99  1  0.92523000  0.57385000  0.34081000  1.0
  C  C100  1  0.35138000  0.76695000  0.42614000  1.0
  C  C101  1  0.58442000  0.65919000  0.23305000  1.0
  C  C102  1  0.08401000  0.49150000  0.63645000  1.0
  C  C103  1  0.59251000  0.14495000  0.50850000  1.0
  C  C104  1  0.44756000  0.36356000  0.85505000  1.0
  C  C105  1  0.91599000  0.50850000  0.36355000  1.0
  C  C106  1  0.40750000  0.85505000  0.49150000  1.0
  C  C107  1  0.55244000  0.63644000  0.14495000  1.0
  C  C108  1  0.01359000  0.51127000  0.61615000  1.0
  C  C109  1  0.50231000  0.10488000  0.48873000  1.0
  C  C110  1  0.39744000  0.38386000  0.89512000  1.0
  C  C111  1  0.98641000  0.48873000  0.38385000  1.0
  C  C112  1  0.49769000  0.89512000  0.51127000  1.0
  C  C113  1  0.60256000  0.61614000  0.10488000  1.0
  C  C114  1  0.01658000  0.58239000  0.59840000  1.0
  C  C115  1  0.43419000  0.01601000  0.41761000  1.0
  C  C116  1  0.41818000  0.40160000  0.98399000  1.0
  C  C117  1  0.98342000  0.41761000  0.40160000  1.0
  C  C118  1  0.56581000  0.98399000  0.58239000  1.0
  C  C119  1  0.58182000  0.59840000  0.01601000  1.0
  C  C120  1  0.97608000  0.67735000  0.58057000  1.0
  C  C121  1  0.29873000  0.90322000  0.32265000  1.0
  C  C122  1  0.39551000  0.41944000  0.09678000  1.0
  C  C123  1  0.02392000  0.32265000  0.41943000  1.0
  C  C124  1  0.70127000  0.09678000  0.67735000  1.0
  C  C125  1  0.60449000  0.58056000  0.90322000  1.0
  C  C126  1  0.06250000  0.70333000  0.58842000  1.0
  C  C127  1  0.35917000  0.88509000  0.29666000  1.0
  C  C128  1  0.47409000  0.41159000  0.11492000  1.0
  C  C129  1  0.93750000  0.29667000  0.41158000  1.0
  C  C130  1  0.64083000  0.11491000  0.70334000  1.0
  C  C131  1  0.52591000  0.58841000  0.88508000  1.0
  C  C132  1  0.12474000  0.77725000  0.58860000  1.0
  C  C133  1  0.34749000  0.81136000  0.22275000  1.0
  C  C134  1  0.53614000  0.41140000  0.18865000  1.0
  C  C135  1  0.87526000  0.22276000  0.41140000  1.0
  C  C136  1  0.65251000  0.18864000  0.77725000  1.0
  C  C137  1  0.46386000  0.58860000  0.81135000  1.0
  C  C138  1  0.21838000  0.80912000  0.63476000  1.0
  C  C139  1  0.40926000  0.82565000  0.19088000  1.0
  C  C140  1  0.58362000  0.36524000  0.17436000  1.0
  C  C141  1  0.78162000  0.19088000  0.36524000  1.0
  C  C142  1  0.59074000  0.17435000  0.80912000  1.0
  C  C143  1  0.41638000  0.63476000  0.82564000  1.0
  C  C144  1  0.27863000  0.87975000  0.63602000  1.0
  C  C145  1  0.39889000  0.75629000  0.12026000  1.0
  C  C146  1  0.64260000  0.36396000  0.24371000  1.0
  C  C147  1  0.72137000  0.12025000  0.36398000  1.0
  C  C148  1  0.60110000  0.24371000  0.87974000  1.0
  C  C149  1  0.35740000  0.63604000  0.75629000  1.0
  C  C150  1  0.24762000  0.92075000  0.59177000  1.0
  C  C151  1  0.32688000  0.67103000  0.07925000  1.0
  C  C152  1  0.65584000  0.40821000  0.32897000  1.0
  C  C153  1  0.75238000  0.07925000  0.40823000  1.0
  C  C154  1  0.67312000  0.32897000  0.92075000  1.0
  C  C155  1  0.34416000  0.59179000  0.67103000  1.0
  C  C156  1  0.15436000  0.88889000  0.54525000  1.0
  C  C157  1  0.26548000  0.65637000  0.11111000  1.0
  C  C158  1  0.60911000  0.45474000  0.34364000  1.0
  C  C159  1  0.84564000  0.11111000  0.45475000  1.0
  C  C160  1  0.73452000  0.34363000  0.88889000  1.0
  C  C161  1  0.39089000  0.54526000  0.65636000  1.0
  C  C162  1  0.09370000  0.81786000  0.54323000  1.0
  C  C163  1  0.27584000  0.72538000  0.18213000  1.0
  C  C164  1  0.55046000  0.45676000  0.27463000  1.0
  C  C165  1  0.90630000  0.18214000  0.45677000  1.0
  C  C166  1  0.72416000  0.27462000  0.81787000  1.0
  C  C167  1  0.44954000  0.54324000  0.72537000  1.0
  C  C168  1  0.31365000  0.99364000  0.58986000  1.0
  C  C169  1  0.32001000  0.59622000  0.00635000  1.0
  C  C170  1  0.72379000  0.41013000  0.40378000  1.0
  C  C171  1  0.68635000  0.00635000  0.41014000  1.0
  C  C172  1  0.67999000  0.40378000  0.99365000  1.0
  C  C173  1  0.27621000  0.58987000  0.59622000  1.0
  C  C174  1  0.91782000  0.71732000  0.57005000  1.0
  C  C175  1  0.20050000  0.85272000  0.28268000  1.0
  C  C176  1  0.34777000  0.42996000  0.14727000  1.0
  C  C177  1  0.08218000  0.28268000  0.42995000  1.0
  C  C178  1  0.79950000  0.14728000  0.71732000  1.0
  C  C179  1  0.65223000  0.57004000  0.85273000  1.0
  C  C180  1  0.82455000  0.66249000  0.51234000  1.0
  C  C181  1  0.16207000  0.84983000  0.33751000  1.0
  C  C182  1  0.31222000  0.48767000  0.15015000  1.0
  C  C183  1  0.17545000  0.33751000  0.48766000  1.0
  C  C184  1  0.83793000  0.15017000  0.66249000  1.0
  C  C185  1  0.68778000  0.51233000  0.84985000  1.0
  C  C186  1  0.76773000  0.69850000  0.50066000  1.0
  C  C187  1  0.06923000  0.80214000  0.30149000  1.0
  C  C188  1  0.26707000  0.49934000  0.19784000  1.0
  C  C189  1  0.23227000  0.30150000  0.49934000  1.0
  C  C190  1  0.93077000  0.19786000  0.69851000  1.0
  C  C191  1  0.73293000  0.50066000  0.80216000  1.0
  C  C192  1  0.80220000  0.78981000  0.54661000  1.0
  C  C193  1  0.01239000  0.75679000  0.21019000  1.0
  C  C194  1  0.25558000  0.45338000  0.24319000  1.0
  C  C195  1  0.19780000  0.21019000  0.45339000  1.0
  C  C196  1  0.98761000  0.24321000  0.78981000  1.0
  C  C197  1  0.74442000  0.54662000  0.75681000  1.0
  C  C198  1  0.89474000  0.84465000  0.60688000  1.0
  C  C199  1  0.05008000  0.76221000  0.15534000  1.0
  C  C200  1  0.28786000  0.39312000  0.23777000  1.0
  C  C201  1  0.10526000  0.15535000  0.39312000  1.0
  C  C202  1  0.94992000  0.23779000  0.84466000  1.0
  C  C203  1  0.71214000  0.60688000  0.76223000  1.0
  C  C204  1  0.95203000  0.80880000  0.61811000  1.0
  C  C205  1  0.14323000  0.80930000  0.19120000  1.0
  C  C206  1  0.33392000  0.38190000  0.19069000  1.0
  C  C207  1  0.04797000  0.19120000  0.38189000  1.0
  C  C208  1  0.85677000  0.19070000  0.80880000  1.0
  C  C209  1  0.66608000  0.61810000  0.80931000  1.0
  C  C210  1  0.74049000  0.82689000  0.52731000  1.0
  C  C211  1  0.91359000  0.70042000  0.17311000  1.0
  C  C212  1  0.21316000  0.47268000  0.29957000  1.0
  C  C213  1  0.25951000  0.17311000  0.47269000  1.0
  C  C214  1  0.08641000  0.29958000  0.82689000  1.0
  C  C215  1  0.78684000  0.52732000  0.70043000  1.0
  N  N216  1  0.93678000  0.46725000  0.61642000  1.0
  N  N217  1  0.46953000  0.14917000  0.53276000  1.0
  N  N218  1  0.32036000  0.38359000  0.85083000  1.0
  N  N219  1  0.06323000  0.53275000  0.38358000  1.0
  N  N220  1  0.53047000  0.85083000  0.46724000  1.0
  N  N221  1  0.67964000  0.61641000  0.14917000  1.0
  N  N222  1  0.94941000  0.60196000  0.58629000  1.0
  N  N223  1  0.34744000  0.98432000  0.39803000  1.0
  N  N224  1  0.36312000  0.41372000  0.01568000  1.0
  N  N225  1  0.05059000  0.39804000  0.41371000  1.0
  N  N226  1  0.65256000  0.01568000  0.60197000  1.0
  N  N227  1  0.63688000  0.58628000  0.98432000  1.0
  N  N228  1  0.08533000  0.64202000  0.59952000  1.0
  N  N229  1  0.44331000  0.95750000  0.35798000  1.0
  N  N230  1  0.48582000  0.40049000  0.04251000  1.0
  N  N231  1  0.91467000  0.35798000  0.40048000  1.0
  N  N232  1  0.55669000  0.04250000  0.64202000  1.0
  N  N233  1  0.51418000  0.59951000  0.95749000  1.0
  O  O234  1  0.27906000  0.02479000  0.54438000  1.0
  O  O235  1  0.25427000  0.51960000  0.97520000  1.0
  O  O236  1  0.73467000  0.45561000  0.48041000  1.0
  O  O237  1  0.72094000  0.97521000  0.45562000  1.0
  O  O238  1  0.74573000  0.48041000  0.02480000  1.0
  O  O239  1  0.26533000  0.54439000  0.51959000  1.0
  O  O240  1  0.39644000  0.01719000  0.62912000  1.0
  O  O241  1  0.37925000  0.61194000  0.98280000  1.0
  O  O242  1  0.76731000  0.37086000  0.38806000  1.0
  O  O243  1  0.60356000  0.98281000  0.37088000  1.0
  O  O244  1  0.62075000  0.38806000  0.01720000  1.0
  O  O245  1  0.23269000  0.62914000  0.61194000  1.0
  O  O246  1  0.66649000  0.78122000  0.45568000  1.0
  O  O247  1  0.88526000  0.67447000  0.21879000  1.0
  O  O248  1  0.21077000  0.54430000  0.32551000  1.0
  O  O249  1  0.33351000  0.21877000  0.54432000  1.0
  O  O250  1  0.11474000  0.32553000  0.78121000  1.0
  O  O251  1  0.78923000  0.45570000  0.67449000  1.0
  O  O252  1  0.76633000  0.90643000  0.58412000  1.0
  O  O253  1  0.85991000  0.67768000  0.09357000  1.0
  O  O254  1  0.18223000  0.41589000  0.32232000  1.0
  O  O255  1  0.23367000  0.09357000  0.41588000  1.0
  O  O256  1  0.14009000  0.32232000  0.90643000  1.0
  O  O257  1  0.81777000  0.58411000  0.67768000  1.0
