# generated using pymatgen
data_CdH4C6(NO2)2
_symmetry_space_group_name_H-M   'P 1'
_cell_length_a   4.46239000
_cell_length_b   10.25600000
_cell_length_c   17.55800000
_cell_angle_alpha   90.00000000
_cell_angle_beta   95.35320000
_cell_angle_gamma   90.00000000
_symmetry_Int_Tables_number   1
_chemical_formula_structural   CdH4C6(NO2)2
_chemical_formula_sum   'Cd4 H16 C24 N8 O16'
_cell_volume   800.05945689
_cell_formula_units_Z   4
loop_
 _symmetry_equiv_pos_site_id
 _symmetry_equiv_pos_as_xyz
  1  'x, y, z'
loop_
 _atom_site_type_symbol
 _atom_site_label
 _atom_site_symmetry_multiplicity
 _atom_site_fract_x
 _atom_site_fract_y
 _atom_site_fract_z
 _atom_site_occupancy
  Cd  Cd0  1  0.31817000  0.54411000  0.40201000  1.0
  Cd  Cd1  1  0.18183000  0.04411000  0.09799000  1.0
  Cd  Cd2  1  0.68183000  0.45589000  0.59799000  1.0
  Cd  Cd3  1  0.81817000  0.95589000  0.90201000  1.0
  H  H4  1  0.73566000  0.16825000  0.51251000  1.0
  H  H5  1  0.76434000  0.66825000  0.98749000  1.0
  H  H6  1  0.26434000  0.83175000  0.48749000  1.0
  H  H7  1  0.23566000  0.33175000  0.01251000  1.0
  H  H8  1  0.50799000  0.89758000  0.32640000  1.0
  H  H9  1  0.99201000  0.39758000  0.17360000  1.0
  H  H10  1  0.49201000  0.10242000  0.67360000  1.0
  H  H11  1  0.00799000  0.60242000  0.82640000  1.0
  H  H12  1  0.46718000  0.77338000  0.25705000  1.0
  H  H13  1  0.03282000  0.27338000  0.24295000  1.0
  H  H14  1  0.53282000  0.22662000  0.74296000  1.0
  H  H15  1  0.96718000  0.72662000  0.75705000  1.0
  H  H16  1  0.53148000  0.18138000  0.42200000  1.0
  H  H17  1  0.96852000  0.68138000  0.07800000  1.0
  H  H18  1  0.46852000  0.81862000  0.57800000  1.0
  H  H19  1  0.03148000  0.31862000  0.92200000  1.0
  C  C20  1  0.87496000  0.32646000  0.44178000  1.0
  C  C21  1  0.62504000  0.82646000  0.05822000  1.0
  C  C22  1  0.12504000  0.67354000  0.55822000  1.0
  C  C23  1  0.37496000  0.17354000  0.94178000  1.0
  C  C24  1  0.76004000  0.18743000  0.45168000  1.0
  C  C25  1  0.73996000  0.68743000  0.04832000  1.0
  C  C26  1  0.23997000  0.81257000  0.54832000  1.0
  C  C27  1  0.26004000  0.31257000  0.95168000  1.0
  C  C28  1  0.95153000  0.08897000  0.42244000  1.0
  C  C29  1  0.54847000  0.58897000  0.07756000  1.0
  C  C30  1  0.04847000  0.91103000  0.57756000  1.0
  C  C31  1  0.45153000  0.41103000  0.92244000  1.0
  C  C32  1  0.81536000  0.73287000  0.34692000  1.0
  C  C33  1  0.68463000  0.23287000  0.15308000  1.0
  C  C34  1  0.18464000  0.26713000  0.65308000  1.0
  C  C35  1  0.31536000  0.76713000  0.84692000  1.0
  C  C36  1  0.63581000  0.82983000  0.29327000  1.0
  C  C37  1  0.86419000  0.32983000  0.20673000  1.0
  C  C38  1  0.36419000  0.17017000  0.70673000  1.0
  C  C39  1  0.13581000  0.67017000  0.79327000  1.0
  C  C40  1  0.82127000  0.90093000  0.24467000  1.0
  C  C41  1  0.67873000  0.40093000  0.25533000  1.0
  C  C42  1  0.17873000  0.09907000  0.75534000  1.0
  C  C43  1  0.32127000  0.59907000  0.74467000  1.0
  N  N44  1  0.11028000  0.01118000  0.39919000  1.0
  N  N45  1  0.38972000  0.51118000  0.10081000  1.0
  N  N46  1  0.88972000  0.98882000  0.60081000  1.0
  N  N47  1  0.61028000  0.48881000  0.89919000  1.0
  N  N48  1  0.97208000  0.95820000  0.20580000  1.0
  N  N49  1  0.52792000  0.45820000  0.29420000  1.0
  N  N50  1  0.02792000  0.04180000  0.79420000  1.0
  N  N51  1  0.47208000  0.54180000  0.70580000  1.0
  O  O52  1  0.72806000  0.41757000  0.47105000  1.0
  O  O53  1  0.77194000  0.91757000  0.02895000  1.0
  O  O54  1  0.27194000  0.58243000  0.52895000  1.0
  O  O55  1  0.22806000  0.08243000  0.97105000  1.0
  O  O56  1  0.09624000  0.34313000  0.40325000  1.0
  O  O57  1  0.40376000  0.84313000  0.09675000  1.0
  O  O58  1  0.90376000  0.65687000  0.59675000  1.0
  O  O59  1  0.59624000  0.15687000  0.90325000  1.0
  O  O60  1  0.05816000  0.68886000  0.32438000  1.0
  O  O61  1  0.44184000  0.18886000  0.17562000  1.0
  O  O62  1  0.94184000  0.31114000  0.67562000  1.0
  O  O63  1  0.55816000  0.81114000  0.82438000  1.0
  O  O64  1  0.70480000  0.70142000  0.40792000  1.0
  O  O65  1  0.79520000  0.20142000  0.09208000  1.0
  O  O66  1  0.29521000  0.29858000  0.59208000  1.0
  O  O67  1  0.20480000  0.79858000  0.90792000  1.0
