# generated using pymatgen
data_CuH8C6N2Cl
_symmetry_space_group_name_H-M   'P 1'
_cell_length_a   6.56964000
_cell_length_b   9.59789000
_cell_length_c   12.94236744
_cell_angle_alpha   85.04038330
_cell_angle_beta   75.38776834
_cell_angle_gamma   69.97840000
_symmetry_Int_Tables_number   1
_chemical_formula_structural   CuH8C6N2Cl
_chemical_formula_sum   'Cu4 H32 C24 N8 Cl4'
_cell_volume   741.95565680
_cell_formula_units_Z   4
loop_
 _symmetry_equiv_pos_site_id
 _symmetry_equiv_pos_as_xyz
  1  'x, y, z'
loop_
 _atom_site_type_symbol
 _atom_site_label
 _atom_site_symmetry_multiplicity
 _atom_site_fract_x
 _atom_site_fract_y
 _atom_site_fract_z
 _atom_site_occupancy
  Cu  Cu0  1  0.46137000  0.07767000  0.24996000  1.0
  Cu  Cu1  1  0.78870000  0.42293000  0.25002000  1.0
  Cu  Cu2  1  0.21132000  0.57706000  0.74997000  1.0
  Cu  Cu3  1  0.53862000  0.92233000  0.75005000  1.0
  H  H4  1  0.14244000  0.12596000  0.11916000  1.0
  H  H5  1  0.38899000  0.37311000  0.38049000  1.0
  H  H6  1  0.73139000  0.12620000  0.38099000  1.0
  H  H7  1  0.23826000  0.37293000  0.11939000  1.0
  H  H8  1  0.76174000  0.62707000  0.88061000  1.0
  H  H9  1  0.26859000  0.87382000  0.61902000  1.0
  H  H10  1  0.61102000  0.62688000  0.61950000  1.0
  H  H11  1  0.85755000  0.87403000  0.88084000  1.0
  H  H12  1  0.90816000  0.96407000  0.12777000  1.0
  H  H13  1  0.99937000  0.53602000  0.37268000  1.0
  H  H14  1  0.12778000  0.96425000  0.37217000  1.0
  H  H15  1  0.46487000  0.53551000  0.12741000  1.0
  H  H16  1  0.53514000  0.46449000  0.87259000  1.0
  H  H17  1  0.87221000  0.03576000  0.62783000  1.0
  H  H18  1  0.00066000  0.46397000  0.62730000  1.0
  H  H19  1  0.09183000  0.03594000  0.87224000  1.0
  H  H20  1  0.02815000  0.82017000  0.02872000  1.0
  H  H21  1  0.87672000  0.67998000  0.47178000  1.0
  H  H22  1  0.15161000  0.82028000  0.47118000  1.0
  H  H23  1  0.44310000  0.67961000  0.02839000  1.0
  H  H24  1  0.55690000  0.32039000  0.97161000  1.0
  H  H25  1  0.84839000  0.17972000  0.52882000  1.0
  H  H26  1  0.12327000  0.32002000  0.52822000  1.0
  H  H27  1  0.97185000  0.17984000  0.97128000  1.0
  H  H28  1  0.84733000  0.79642000  0.15315000  1.0
  H  H29  1  0.79620000  0.70370000  0.34729000  1.0
  H  H30  1  0.35620000  0.79659000  0.34675000  1.0
  H  H31  1  0.49995000  0.70328000  0.15286000  1.0
  H  H32  1  0.50006000  0.29671000  0.84715000  1.0
  H  H33  1  0.64382000  0.20341000  0.65325000  1.0
  H  H34  1  0.20380000  0.29630000  0.65270000  1.0
  H  H35  1  0.15268000  0.20357000  0.84685000  1.0
  C  C36  1  0.68122000  0.94212000  0.04320000  1.0
  C  C37  1  0.66629000  0.55799000  0.45708000  1.0
  C  C38  1  0.37675000  0.94215000  0.45673000  1.0
  C  C39  1  0.77570000  0.55782000  0.04298000  1.0
  C  C40  1  0.22429000  0.44218000  0.95703000  1.0
  C  C41  1  0.62324000  0.05787000  0.54328000  1.0
  C  C42  1  0.33372000  0.44201000  0.54291000  1.0
  C  C43  1  0.31878000  0.05789000  0.95680000  1.0
  C  C44  1  0.30232000  0.06865000  0.06524000  1.0
  C  C45  1  0.43718000  0.43059000  0.43463000  1.0
  C  C46  1  0.62887000  0.06881000  0.43485000  1.0
  C  C47  1  0.13248000  0.43056000  0.06530000  1.0
  C  C48  1  0.86752000  0.56944000  0.93470000  1.0
  C  C49  1  0.37109000  0.93120000  0.56516000  1.0
  C  C50  1  0.56282000  0.56941000  0.56536000  1.0
  C  C51  1  0.69768000  0.93134000  0.93477000  1.0
  C  C52  1  0.87889000  0.87646000  0.09019000  1.0
  C  C53  1  0.84509000  0.62367000  0.41026000  1.0
  C  C54  1  0.24463000  0.87656000  0.40974000  1.0
  C  C55  1  0.53121000  0.62327000  0.08987000  1.0
  C  C56  1  0.46880000  0.37672000  0.91013000  1.0
  C  C57  1  0.75537000  0.12345000  0.59026000  1.0
  C  C58  1  0.15492000  0.37633000  0.58973000  1.0
  C  C59  1  0.12110000  0.12355000  0.90982000  1.0
  N  N60  1  0.47990000  0.01324000  0.10924000  1.0
  N  N61  1  0.60312000  0.48607000  0.39104000  1.0
  N  N62  1  0.50683000  0.01339000  0.39078000  1.0
  N  N63  1  0.91104000  0.48589000  0.10894000  1.0
  N  N64  1  0.08897000  0.51410000  0.89106000  1.0
  N  N65  1  0.49314000  0.98662000  0.60923000  1.0
  N  N66  1  0.39690000  0.51392000  0.60895000  1.0
  N  N67  1  0.52012000  0.98676000  0.89076000  1.0
  Cl  Cl68  1  0.09291000  0.24994000  0.31544000  1.0
  Cl  Cl69  1  0.65734000  0.24989000  0.18457000  1.0
  Cl  Cl70  1  0.90708000  0.75006000  0.68456000  1.0
  Cl  Cl71  1  0.34266000  0.75010000  0.81543000  1.0
