# generated using pymatgen
data_SnH25C30NO4
_symmetry_space_group_name_H-M   'P 1'
_cell_length_a   9.75025000
_cell_length_b   11.29770000
_cell_length_c   12.05710000
_cell_angle_alpha   73.13770000
_cell_angle_beta   87.08040000
_cell_angle_gamma   79.81650000
_symmetry_Int_Tables_number   1
_chemical_formula_structural   SnH25C30NO4
_chemical_formula_sum   'Sn2 H50 C60 N2 O8'
_cell_volume   1251.02670461
_cell_formula_units_Z   2
loop_
 _symmetry_equiv_pos_site_id
 _symmetry_equiv_pos_as_xyz
  1  'x, y, z'
loop_
 _atom_site_type_symbol
 _atom_site_label
 _atom_site_symmetry_multiplicity
 _atom_site_fract_x
 _atom_site_fract_y
 _atom_site_fract_z
 _atom_site_occupancy
  Sn  Sn0  1  0.12089000  0.21601000  0.36489000  1.0
  Sn  Sn1  1  0.87911000  0.78399000  0.63511000  1.0
  H  H2  1  0.00648000  0.11523000  0.61779000  1.0
  H  H3  1  0.99352000  0.88477000  0.38221000  1.0
  H  H4  1  0.10224000  0.00634000  0.81310000  1.0
  H  H5  1  0.89776000  0.99366000  0.18690000  1.0
  H  H6  1  0.36006000  0.95428000  0.84456000  1.0
  H  H7  1  0.63994000  0.04572000  0.15544000  1.0
  H  H8  1  0.51890000  0.00351000  0.67632000  1.0
  H  H9  1  0.48110000  0.99649000  0.32368000  1.0
  H  H10  1  0.42367000  0.10900000  0.47931000  1.0
  H  H11  1  0.57633000  0.89100000  0.52069000  1.0
  H  H12  1  0.03436000  0.23890000  0.10623000  1.0
  H  H13  1  0.96564000  0.76110000  0.89377000  1.0
  H  H14  1  0.09435000  0.11014000  0.96930000  1.0
  H  H15  1  0.90565000  0.88986000  0.03071000  1.0
  H  H16  1  0.23436000  0.89504000  0.03785000  1.0
  H  H17  1  0.76564000  0.10496000  0.96215000  1.0
  H  H18  1  0.31343000  0.81073000  0.24322000  1.0
  H  H19  1  0.68658000  0.18927000  0.75678000  1.0
  H  H20  1  0.26112000  0.94164000  0.37718000  1.0
  H  H21  1  0.73887000  0.05835000  0.62282000  1.0
  H  H22  1  0.04322000  0.42901000  0.12365000  1.0
  H  H23  1  0.95678000  0.57099000  0.87635000  1.0
  H  H24  1  0.00327000  0.66052000  0.05932000  1.0
  H  H25  1  0.99673000  0.33948000  0.94068000  1.0
  H  H26  1  0.02650000  0.78093000  0.19884000  1.0
  H  H27  1  0.97350000  0.21907000  0.80116000  1.0
  H  H28  1  0.09012000  0.66800000  0.40380000  1.0
  H  H29  1  0.90987000  0.33200000  0.59620000  1.0
  H  H30  1  0.12793000  0.43593000  0.46977000  1.0
  H  H31  1  0.87207000  0.56407000  0.53023000  1.0
  H  H32  1  0.68386000  0.30302000  0.50431000  1.0
  H  H33  1  0.31614000  0.69698000  0.49569000  1.0
  H  H34  1  0.45983000  0.32041000  0.44411000  1.0
  H  H35  1  0.54017000  0.67959000  0.55589000  1.0
  H  H36  1  0.33073000  0.25778000  0.10008000  1.0
  H  H37  1  0.66927000  0.74222000  0.89992000  1.0
  H  H38  1  0.28147000  0.29047000  0.89350000  1.0
  H  H39  1  0.71853000  0.70953000  0.10650000  1.0
  H  H40  1  0.67646000  0.41280000  0.79854000  1.0
  H  H41  1  0.32354000  0.58720000  0.20146000  1.0
  H  H42  1  0.72282000  0.38758000  0.00574000  1.0
  H  H43  1  0.27719000  0.61242000  0.99426000  1.0
  H  H44  1  0.30467000  0.41860000  0.57096000  1.0
  H  H45  1  0.69533000  0.58140000  0.42904000  1.0
  H  H46  1  0.22942000  0.44021000  0.70453000  1.0
  H  H47  1  0.77058000  0.55980000  0.29547000  1.0
  H  H48  1  0.27602000  0.28713000  0.68853000  1.0
  H  H49  1  0.72397000  0.71287000  0.31147000  1.0
  H  H50  1  0.66399000  0.32538000  0.19347000  1.0
  H  H51  1  0.33601000  0.67462000  0.80653000  1.0
  C  C52  1  0.20804000  0.12317000  0.53432000  1.0
  C  C53  1  0.79196000  0.87683000  0.46568000  1.0
  C  C54  1  0.11899000  0.09248000  0.62963000  1.0
  C  C55  1  0.88101000  0.90752000  0.37037000  1.0
  C  C56  1  0.17332000  0.03141000  0.74063000  1.0
  C  C57  1  0.82668000  0.96859000  0.25937000  1.0
  C  C58  1  0.31719000  0.00100000  0.75799000  1.0
  C  C59  1  0.68281000  0.99900000  0.24201000  1.0
  C  C60  1  0.40659000  0.02915000  0.66331000  1.0
  C  C61  1  0.59341000  0.97085000  0.33669000  1.0
  C  C62  1  0.35238000  0.08903000  0.55218000  1.0
  C  C63  1  0.64762000  0.91097000  0.44781000  1.0
  C  C64  1  0.14774000  0.10135000  0.24965000  1.0
  C  C65  1  0.85226000  0.89865000  0.75035000  1.0
  C  C66  1  0.09963000  0.14681000  0.13505000  1.0
  C  C67  1  0.90037000  0.85319000  0.86495000  1.0
  C  C68  1  0.13151000  0.07365000  0.05856000  1.0
  C  C69  1  0.86849000  0.92636000  0.94144000  1.0
  C  C70  1  0.20988000  0.95315000  0.09681000  1.0
  C  C71  1  0.79012000  0.04685000  0.90320000  1.0
  C  C72  1  0.25534000  0.90572000  0.21176000  1.0
  C  C73  1  0.74466000  0.09428000  0.78824000  1.0
  C  C74  1  0.22508000  0.97998000  0.28749000  1.0
  C  C75  1  0.77492000  0.02001000  0.71252000  1.0
  C  C76  1  0.08925000  0.41593000  0.30151000  1.0
  C  C77  1  0.91075000  0.58407000  0.69849000  1.0
  C  C78  1  0.05409000  0.48023000  0.18579000  1.0
  C  C79  1  0.94591000  0.51977000  0.81421000  1.0
  C  C80  1  0.03113000  0.61118000  0.14928000  1.0
  C  C81  1  0.96887000  0.38882000  0.85072000  1.0
  C  C82  1  0.04368000  0.67886000  0.22745000  1.0
  C  C83  1  0.95632000  0.32114000  0.77255000  1.0
  C  C84  1  0.07951000  0.61558000  0.34259000  1.0
  C  C85  1  0.92049000  0.38442000  0.65741000  1.0
  C  C86  1  0.10171000  0.48455000  0.37928000  1.0
  C  C87  1  0.89829000  0.51545000  0.62072000  1.0
  C  C88  1  0.80838000  0.26599000  0.35927000  1.0
  C  C89  1  0.19162000  0.73401000  0.64073000  1.0
  C  C90  1  0.67332000  0.29184000  0.41837000  1.0
  C  C91  1  0.32668000  0.70816000  0.58163000  1.0
  C  C92  1  0.54167000  0.30240000  0.38298000  1.0
  C  C93  1  0.45833000  0.69760000  0.61702000  1.0
  C  C94  1  0.48425000  0.28764000  0.27718000  1.0
  C  C95  1  0.51575000  0.71236000  0.72282000  1.0
  C  C96  1  0.52928000  0.32162000  0.06657000  1.0
  C  C97  1  0.47072000  0.67838000  0.93343000  1.0
  C  C98  1  0.40494000  0.29346000  0.03412000  1.0
  C  C99  1  0.59506000  0.70653000  0.96588000  1.0
  C  C100  1  0.37861000  0.31206000  0.91742000  1.0
  C  C101  1  0.62139000  0.68793000  0.08258000  1.0
  C  C102  1  0.47555000  0.35463000  0.83141000  1.0
  C  C103  1  0.52445000  0.64537000  0.16859000  1.0
  C  C104  1  0.60111000  0.37954000  0.86512000  1.0
  C  C105  1  0.39889000  0.62046000  0.13488000  1.0
  C  C106  1  0.62732000  0.36433000  0.98050000  1.0
  C  C107  1  0.37268000  0.63567000  0.01950000  1.0
  C  C108  1  0.45216000  0.37045000  0.70701000  1.0
  C  C109  1  0.54784000  0.62955000  0.29299000  1.0
  C  C110  1  0.30631000  0.38070000  0.66545000  1.0
  C  C111  1  0.69369000  0.61930000  0.33455000  1.0
  N  N112  1  0.56298000  0.31309000  0.17976000  1.0
  N  N113  1  0.43702000  0.68691000  0.82024000  1.0
  O  O114  1  0.91095000  0.21251000  0.43191000  1.0
  O  O115  1  0.08905000  0.78749000  0.56809000  1.0
  O  O116  1  0.82304000  0.29792000  0.25119000  1.0
  O  O117  1  0.17696000  0.70208000  0.74881000  1.0
  O  O118  1  0.36612000  0.25714000  0.28049000  1.0
  O  O119  1  0.63389000  0.74286000  0.71951000  1.0
  O  O120  1  0.55178000  0.37400000  0.63872000  1.0
  O  O121  1  0.44822000  0.62600000  0.36128000  1.0
