# generated using pymatgen
data_AgH3(C3O)2
_symmetry_space_group_name_H-M   'P 1'
_cell_length_a   6.10853000
_cell_length_b   10.69300000
_cell_length_c   16.84960000
_cell_angle_alpha   98.59430000
_cell_angle_beta   89.99780000
_cell_angle_gamma   89.99790000
_symmetry_Int_Tables_number   1
_chemical_formula_structural   AgH3(C3O)2
_chemical_formula_sum   'Ag8 H24 C48 O16'
_cell_volume   1088.23252997
_cell_formula_units_Z   8
loop_
 _symmetry_equiv_pos_site_id
 _symmetry_equiv_pos_as_xyz
  1  'x, y, z'
loop_
 _atom_site_type_symbol
 _atom_site_label
 _atom_site_symmetry_multiplicity
 _atom_site_fract_x
 _atom_site_fract_y
 _atom_site_fract_z
 _atom_site_occupancy
  Ag  Ag0  1  0.66937000  0.41315000  0.42660000  1.0
  Ag  Ag1  1  0.16947000  0.08686000  0.57338000  1.0
  Ag  Ag2  1  0.33063000  0.58685000  0.57339000  1.0
  Ag  Ag3  1  0.83055000  0.91314000  0.42663000  1.0
  Ag  Ag4  1  0.04967000  0.27766000  0.46052000  1.0
  Ag  Ag5  1  0.54979000  0.22235000  0.53944000  1.0
  Ag  Ag6  1  0.95031000  0.72234000  0.53947000  1.0
  Ag  Ag7  1  0.45021000  0.77765000  0.46057000  1.0
  H  H8  1  0.32214000  0.32732000  0.30060000  1.0
  H  H9  1  0.82218000  0.17267000  0.69938000  1.0
  H  H10  1  0.67788000  0.67268000  0.69938000  1.0
  H  H11  1  0.17783000  0.82733000  0.30061000  1.0
  H  H12  1  0.33329000  0.16347000  0.18131000  1.0
  H  H13  1  0.83332000  0.33651000  0.81870000  1.0
  H  H14  1  0.66674000  0.83654000  0.81868000  1.0
  H  H15  1  0.16668000  0.66349000  0.18131000  1.0
  H  H16  1  0.16004000  0.05882000  0.05530000  1.0
  H  H17  1  0.66008000  0.44114000  0.94470000  1.0
  H  H18  1  0.83993000  0.94117000  0.94469000  1.0
  H  H19  1  0.33989000  0.55886000  0.05529000  1.0
  H  H20  1  0.81612000  0.14874000  0.00473000  1.0
  H  H21  1  0.31616000  0.35123000  0.99529000  1.0
  H  H22  1  0.18385000  0.85126000  0.99527000  1.0
  H  H23  1  0.68380000  0.64877000  0.00470000  1.0
  H  H24  1  0.65667000  0.34486000  0.07706000  1.0
  H  H25  1  0.15673000  0.15512000  0.92296000  1.0
  H  H26  1  0.34331000  0.65515000  0.92294000  1.0
  H  H27  1  0.84324000  0.84488000  0.07702000  1.0
  H  H28  1  0.66853000  0.52312000  0.18962000  1.0
  H  H29  1  0.16856000  0.97690000  0.81041000  1.0
  H  H30  1  0.33149000  0.47690000  0.81040000  1.0
  H  H31  1  0.83143000  0.02310000  0.18959000  1.0
  C  C32  1  0.16960000  0.53520000  0.39874000  1.0
  C  C33  1  0.66962000  0.96478000  0.60125000  1.0
  C  C34  1  0.83044000  0.46479000  0.60125000  1.0
  C  C35  1  0.33038000  0.03522000  0.39875000  1.0
  C  C36  1  0.08476000  0.47795000  0.31868000  1.0
  C  C37  1  0.58479000  0.02203000  0.68133000  1.0
  C  C38  1  0.91526000  0.52204000  0.68131000  1.0
  C  C39  1  0.41521000  0.97796000  0.31867000  1.0
  C  C40  1  0.17940000  0.37042000  0.27656000  1.0
  C  C41  1  0.67942000  0.12957000  0.72344000  1.0
  C  C42  1  0.82063000  0.62958000  0.72343000  1.0
  C  C43  1  0.32058000  0.87042000  0.27656000  1.0
  C  C44  1  0.09338000  0.31420000  0.20165000  1.0
  C  C45  1  0.59343000  0.18580000  0.79837000  1.0
  C  C46  1  0.90662000  0.68581000  0.79835000  1.0
  C  C47  1  0.40658000  0.81420000  0.20164000  1.0
  C  C48  1  0.18566000  0.20263000  0.15809000  1.0
  C  C49  1  0.68570000  0.29737000  0.84193000  1.0
  C  C50  1  0.81436000  0.79738000  0.84191000  1.0
  C  C51  1  0.31430000  0.70263000  0.15808000  1.0
  C  C52  1  0.08807000  0.14453000  0.08827000  1.0
  C  C53  1  0.58812000  0.35546000  0.91174000  1.0
  C  C54  1  0.91192000  0.85547000  0.91173000  1.0
  C  C55  1  0.41186000  0.64454000  0.08826000  1.0
  C  C56  1  0.89527000  0.19577000  0.05922000  1.0
  C  C57  1  0.39533000  0.30423000  0.94080000  1.0
  C  C58  1  0.10470000  0.80424000  0.94078000  1.0
  C  C59  1  0.60465000  0.69578000  0.05919000  1.0
  C  C60  1  0.80566000  0.30592000  0.09929000  1.0
  C  C61  1  0.30571000  0.19408000  0.90073000  1.0
  C  C62  1  0.19432000  0.69409000  0.90071000  1.0
  C  C63  1  0.69427000  0.80593000  0.09926000  1.0
  C  C64  1  0.90269000  0.36871000  0.17067000  1.0
  C  C65  1  0.40273000  0.13129000  0.82935000  1.0
  C  C66  1  0.09731000  0.63130000  0.82933000  1.0
  C  C67  1  0.59727000  0.86872000  0.17066000  1.0
  C  C68  1  0.81317000  0.48163000  0.21341000  1.0
  C  C69  1  0.31322000  0.01837000  0.78661000  1.0
  C  C70  1  0.18684000  0.51837000  0.78660000  1.0
  C  C71  1  0.68679000  0.98163000  0.21339000  1.0
  C  C72  1  0.90185000  0.53651000  0.28545000  1.0
  C  C73  1  0.40188000  0.96349000  0.71456000  1.0
  C  C74  1  0.09817000  0.46349000  0.71456000  1.0
  C  C75  1  0.59812000  0.03651000  0.28544000  1.0
  C  C76  1  0.79351000  0.64922000  0.33425000  1.0
  C  C77  1  0.29354000  0.85078000  0.66578000  1.0
  C  C78  1  0.20650000  0.35077000  0.66576000  1.0
  C  C79  1  0.70645000  0.14921000  0.33422000  1.0
  O  O80  1  0.25785000  0.46505000  0.44598000  1.0
  O  O81  1  0.75787000  0.03495000  0.55403000  1.0
  O  O82  1  0.74219000  0.53494000  0.55402000  1.0
  O  O83  1  0.24212000  0.96505000  0.44598000  1.0
  O  O84  1  0.14462000  0.65406000  0.41775000  1.0
  O  O85  1  0.64461000  0.84593000  0.58225000  1.0
  O  O86  1  0.85543000  0.34593000  0.58225000  1.0
  O  O87  1  0.35540000  0.15407000  0.41776000  1.0
  O  O88  1  0.66314000  0.62194000  0.38887000  1.0
  O  O89  1  0.16316000  0.87809000  0.61117000  1.0
  O  O90  1  0.33688000  0.37806000  0.61114000  1.0
  O  O91  1  0.83683000  0.12192000  0.38884000  1.0
  O  O92  1  0.83354000  0.75918000  0.31936000  1.0
  O  O93  1  0.33355000  0.74082000  0.68066000  1.0
  O  O94  1  0.16647000  0.24081000  0.68065000  1.0
  O  O95  1  0.66644000  0.25917000  0.31934000  1.0
