# generated using pymatgen
data_Zn4H56C46O13
_symmetry_space_group_name_H-M   'P 1'
_cell_length_a   10.84790000
_cell_length_b   10.84950000
_cell_length_c   15.45180000
_cell_angle_alpha   71.18080000
_cell_angle_beta   81.57660000
_cell_angle_gamma   78.17830000
_symmetry_Int_Tables_number   1
_chemical_formula_structural   Zn4H56C46O13
_chemical_formula_sum   'Zn4 H56 C46 O13'
_cell_volume   1678.50221146
_cell_formula_units_Z   1
loop_
 _symmetry_equiv_pos_site_id
 _symmetry_equiv_pos_as_xyz
  1  'x, y, z'
loop_
 _atom_site_type_symbol
 _atom_site_label
 _atom_site_symmetry_multiplicity
 _atom_site_fract_x
 _atom_site_fract_y
 _atom_site_fract_z
 _atom_site_occupancy
  Zn  Zn0  1  0.57496000  0.57557000  0.57851000  1.0
  Zn  Zn1  1  0.64303000  0.40129000  0.43767000  1.0
  Zn  Zn2  1  0.40814000  0.64023000  0.41074000  1.0
  Zn  Zn3  1  0.40149000  0.37827000  0.58494000  1.0
  H  H4  1  0.60422000  0.95095000  0.54717000  1.0
  H  H5  1  0.60978000  0.79600000  0.19316000  1.0
  H  H6  1  0.88714000  0.76906000  0.52693000  1.0
  H  H7  1  0.04067000  0.80465000  0.48012000  1.0
  H  H8  1  0.90925000  0.87804000  0.41385000  1.0
  H  H9  1  0.03606000  0.69189000  0.36113000  1.0
  H  H10  1  0.88475000  0.65588000  0.40819000  1.0
  H  H11  1  0.84455000  0.23929000  0.65934000  1.0
  H  H12  1  0.92591000  0.17976000  0.56871000  1.0
  H  H13  1  0.98103000  0.11653000  0.68000000  1.0
  H  H14  1  0.11881000  0.27361000  0.57910000  1.0
  H  H15  1  0.75380000  0.62675000  0.84737000  1.0
  H  H16  1  0.03811000  0.33144000  0.66809000  1.0
  H  H17  1  0.77153000  0.06001000  0.84832000  1.0
  H  H18  1  0.78924000  0.97792000  0.76376000  1.0
  H  H19  1  0.65556000  0.10230000  0.76888000  1.0
  H  H20  1  0.59494000  0.87596000  0.83777000  1.0
  H  H21  1  0.57547000  0.95905000  0.92095000  1.0
  H  H22  1  0.78696000  0.83737000  0.97541000  1.0
  H  H23  1  0.80687000  0.75493000  0.89278000  1.0
  H  H24  1  0.61508000  0.13121000  0.32975000  1.0
  H  H25  1  0.56809000  0.07787000  0.24394000  1.0
  H  H26  1  0.32320000  0.41930000  0.08636000  1.0
  H  H27  1  0.73070000  0.06162000  0.25776000  1.0
  H  H28  1  0.67024000  0.25595000  0.12130000  1.0
  H  H29  1  0.71567000  0.30723000  0.20765000  1.0
  H  H30  1  0.48525000  0.36519000  0.25988000  1.0
  H  H31  1  0.44409000  0.31519000  0.17213000  1.0
  H  H32  1  0.10555000  0.32630000  0.85956000  1.0
  H  H33  1  0.20041000  0.37166000  0.75449000  1.0
  H  H34  1  0.14515000  0.21836000  0.79086000  1.0
  H  H35  1  0.37054000  0.17719000  0.81969000  1.0
  H  H36  1  0.27596000  0.13613000  0.92389000  1.0
  H  H37  1  0.95283000  0.80258000  0.21667000  1.0
  H  H38  1  0.09543000  0.46825000  0.05953000  1.0
  H  H39  1  0.05683000  0.44355000  0.95956000  1.0
  H  H40  1  0.99015000  0.35768000  0.06943000  1.0
  H  H41  1  0.16385000  0.20379000  0.01512000  1.0
  H  H42  1  0.20500000  0.23212000  0.11211000  1.0
  H  H43  1  0.88647000  0.37457000  0.87954000  1.0
  H  H44  1  0.79212000  0.25081000  0.90019000  1.0
  H  H45  1  0.90499000  0.27816000  0.80299000  1.0
  H  H46  1  0.69270000  0.37882000  0.75232000  1.0
  H  H47  1  0.77936000  0.50598000  0.73598000  1.0
  H  H48  1  0.84797000  0.93344000  0.14793000  1.0
  H  H49  1  0.12669000  0.26920000  0.37922000  1.0
  H  H50  1  0.12369000  0.14501000  0.32797000  1.0
  H  H51  1  0.01871000  0.15707000  0.42554000  1.0
  H  H52  1  0.19927000  0.96891000  0.47157000  1.0
  H  H53  1  0.20520000  0.09237000  0.52191000  1.0
  H  H54  1  0.36405000  0.18539000  0.39528000  1.0
  H  H55  1  0.35790000  0.06175000  0.34479000  1.0
  H  H56  1  0.79552000  0.84653000  0.26136000  1.0
  H  H57  1  0.81608000  0.64002000  0.21586000  1.0
  H  H58  1  0.87541000  0.72122000  0.10427000  1.0
  H  H59  1  0.66843000  0.88259000  0.08329000  1.0
  C  C60  1  0.52528000  0.16243000  0.51194000  1.0
  C  C61  1  0.53512000  0.49108000  0.12324000  1.0
  C  C62  1  0.63305000  0.68943000  0.09449000  1.0
  C  C63  1  0.46968000  0.84704000  0.47375000  1.0
  C  C64  1  0.45755000  0.37392000  0.85143000  1.0
  C  C65  1  0.45046000  0.99013000  0.46746000  1.0
  C  C66  1  0.52914000  0.02527000  0.51165000  1.0
  C  C67  1  0.03708000  0.54340000  0.49078000  1.0
  C  C68  1  0.97438000  0.44259000  0.53797000  1.0
  C  C69  1  0.83712000  0.46163000  0.52345000  1.0
  C  C70  1  0.17385000  0.53460000  0.49839000  1.0
  C  C71  1  0.30906000  0.32572000  0.98717000  1.0
  C  C72  1  0.56095000  0.56392000  0.25540000  1.0
  C  C73  1  0.47317000  0.40680000  0.74903000  1.0
  C  C74  1  0.66302000  0.69488000  0.00226000  1.0
  C  C75  1  0.57596000  0.58269000  0.15403000  1.0
  C  C76  1  0.35802000  0.30674000  0.90104000  1.0
  C  C77  1  0.67485000  0.78364000  0.13375000  1.0
  C  C78  1  0.81073000  0.73715000  0.16312000  1.0
  C  C79  1  0.85433000  0.83508000  0.19921000  1.0
  C  C80  1  0.97466000  0.66969000  0.42547000  1.0
  C  C81  1  0.95158000  0.78719000  0.46396000  1.0
  C  C82  1  0.36800000  0.39726000  0.02392000  1.0
  C  C83  1  0.02365000  0.31146000  0.60516000  1.0
  C  C84  1  0.93884000  0.20636000  0.62912000  1.0
  C  C85  1  0.73441000  0.79873000  0.93718000  1.0
  C  C86  1  0.64726000  0.91462000  0.87640000  1.0
  C  C87  1  0.71960000  0.01954000  0.81067000  1.0
  C  C88  1  0.51575000  0.35809000  0.19032000  1.0
  C  C89  1  0.64292000  0.26279000  0.19140000  1.0
  C  C90  1  0.63857000  0.12597000  0.25939000  1.0
  C  C91  1  0.29993000  0.21953000  0.86500000  1.0
  C  C92  1  0.18116000  0.28827000  0.81470000  1.0
  C  C93  1  0.48085000  0.44472000  0.98359000  1.0
  C  C94  1  0.18868000  0.27958000  0.03914000  1.0
  C  C95  1  0.07620000  0.39364000  0.03155000  1.0
  C  C96  1  0.73485000  0.42894000  0.78881000  1.0
  C  C97  1  0.83588000  0.32716000  0.84601000  1.0
  C  C98  1  0.34913000  0.08296000  0.41068000  1.0
  C  C99  1  0.21426000  0.07145000  0.45591000  1.0
  C  C100  1  0.11536000  0.16571000  0.39400000  1.0
  C  C101  1  0.52586000  0.43510000  0.89413000  1.0
  C  C102  1  0.54298000  0.51341000  0.02694000  1.0
  C  C103  1  0.62164000  0.60309000  0.96910000  1.0
  C  C104  1  0.67259000  0.58072000  0.88339000  1.0
  C  C105  1  0.63941000  0.48847000  0.85190000  1.0
  O  O106  1  0.50827000  0.49902000  0.50021000  1.0
  O  O107  1  0.64106000  0.47479000  0.30395000  1.0
  O  O108  1  0.45806000  0.32388000  0.70956000  1.0
  O  O109  1  0.46859000  0.63778000  0.28481000  1.0
  O  O110  1  0.49460000  0.52372000  0.70446000  1.0
  O  O111  1  0.76044000  0.52396000  0.57175000  1.0
  O  O112  1  0.22297000  0.45393000  0.57055000  1.0
  O  O113  1  0.62460000  0.21286000  0.47708000  1.0
  O  O114  1  0.40866000  0.81608000  0.42122000  1.0
  O  O115  1  0.42427000  0.21681000  0.54776000  1.0
  O  O116  1  0.54498000  0.76740000  0.53109000  1.0
  O  O117  1  0.81049000  0.41109000  0.46621000  1.0
  O  O118  1  0.23267000  0.61056000  0.43108000  1.0
