# generated using pymatgen
data_Al2H16C24N2O11
_symmetry_space_group_name_H-M   'P 1'
_cell_length_a   6.70807000
_cell_length_b   11.14545110
_cell_length_c   17.62300000
_cell_angle_alpha   94.98677270
_cell_angle_beta   100.08510000
_cell_angle_gamma   107.36538520
_symmetry_Int_Tables_number   1
_chemical_formula_structural   Al2H16C24N2O11
_chemical_formula_sum   'Al2 H16 C24 N2 O11'
_cell_volume   1224.43199833
_cell_formula_units_Z   1
loop_
 _symmetry_equiv_pos_site_id
 _symmetry_equiv_pos_as_xyz
  1  'x, y, z'
loop_
 _atom_site_type_symbol
 _atom_site_label
 _atom_site_symmetry_multiplicity
 _atom_site_fract_x
 _atom_site_fract_y
 _atom_site_fract_z
 _atom_site_occupancy
  Al  Al0  1  0.98970000  0.47727000  0.49850000  1.0
  Al  Al1  1  0.49056000  0.47956000  0.49853000  1.0
  H  H2  1  0.15401000  0.39031000  0.40540000  1.0
  H  H3  1  0.84215000  0.62520000  0.55866000  1.0
  H  H4  1  0.74240000  0.85832000  0.48485000  1.0
  H  H5  1  0.11977000  0.86323000  0.51315000  1.0
  H  H6  1  0.85509000  0.09244000  0.48433000  1.0
  H  H7  1  0.99025000  0.57238000  0.27740000  1.0
  H  H8  1  0.93437000  0.61121000  0.13875000  1.0
  H  H9  1  0.31207000  0.46152000  0.26334000  1.0
  H  H10  1  0.64750000  0.46339000  0.73034000  1.0
  H  H11  1  0.07531000  0.56054000  0.73399000  1.0
  H  H12  1  0.17086000  0.60181000  0.87995000  1.0
  H  H13  1  0.26998000  0.19635000  0.51156000  1.0
  H  H14  1  0.19067000  0.48518000  0.05551000  1.0
  H  H15  1  0.08233000  0.44104000  0.13460000  1.0
  H  H16  1  0.78600000  0.48356000  0.94286000  1.0
  H  H17  1  0.84825000  0.43878000  0.85629000  1.0
  C  C18  1  0.68276000  0.48647000  0.35953000  1.0
  C  C19  1  0.62458000  0.24893000  0.49731000  1.0
  C  C20  1  0.30570000  0.48878000  0.63796000  1.0
  C  C21  1  0.35677000  0.70730000  0.50092000  1.0
  C  C22  1  0.55265000  0.11042000  0.49807000  1.0
  C  C23  1  0.42454000  0.84724000  0.49942000  1.0
  C  C24  1  0.34240000  0.04505000  0.50650000  1.0
  C  C25  1  0.63262000  0.91153000  0.49097000  1.0
  C  C26  1  0.28085000  0.91341000  0.50689000  1.0
  C  C27  1  0.69432000  0.04149000  0.49029000  1.0
  C  C28  1  0.65265000  0.51178000  0.27732000  1.0
  C  C29  1  0.83023000  0.55485000  0.24289000  1.0
  C  C30  1  0.79830000  0.57615000  0.16596000  1.0
  C  C31  1  0.59085000  0.55217000  0.12101000  1.0
  C  C32  1  0.41109000  0.51095000  0.15655000  1.0
  C  C33  1  0.44670000  0.49272000  0.23488000  1.0
  C  C34  1  0.55449000  0.56183000  0.04076000  1.0
  C  C35  1  0.50326000  0.56014000  0.97026000  1.0
  C  C36  1  0.45632000  0.54807000  0.88814000  1.0
  C  C37  1  0.59475000  0.50850000  0.84588000  1.0
  C  C38  1  0.54303000  0.49153000  0.76420000  1.0
  C  C39  1  0.35632000  0.50844000  0.72475000  1.0
  C  C40  1  0.21903000  0.54676000  0.76613000  1.0
  C  C41  1  0.27209000  0.56861000  0.84691000  1.0
  N  N42  1  0.20879000  0.49188000  0.11424000  1.0
  N  N43  1  0.77694000  0.49057000  0.88544000  1.0
  O  O44  1  0.86709000  0.48400000  0.39175000  1.0
  O  O45  1  0.48485000  0.30655000  0.50187000  1.0
  O  O46  1  0.45800000  0.48784000  0.60389000  1.0
  O  O47  1  0.16443000  0.65274000  0.50615000  1.0
  O  O48  1  0.11518000  0.47627000  0.60406000  1.0
  O  O49  1  0.49819000  0.65271000  0.49759000  1.0
  O  O50  1  0.52128000  0.46790000  0.39154000  1.0
  O  O51  1  0.81492000  0.30432000  0.49162000  1.0
  O  O52  1  0.19399000  0.41871000  0.46116000  1.0
  O  O53  1  0.78570000  0.53757000  0.53355000  1.0
  O  O54  1  0.19767000  0.10457000  0.51450000  1.0
