# generated using pymatgen
data_SmAgH12C14N2O11
_symmetry_space_group_name_H-M   'P 1'
_cell_length_a   7.29726000
_cell_length_b   14.17080000
_cell_length_c   19.37490000
_cell_angle_alpha   76.07400000
_cell_angle_beta   89.99990000
_cell_angle_gamma   89.99940000
_symmetry_Int_Tables_number   1
_chemical_formula_structural   SmAgH12C14N2O11
_chemical_formula_sum   'Sm4 Ag4 H48 C56 N8 O44'
_cell_volume   1944.63117208
_cell_formula_units_Z   4
loop_
 _symmetry_equiv_pos_site_id
 _symmetry_equiv_pos_as_xyz
  1  'x, y, z'
loop_
 _atom_site_type_symbol
 _atom_site_label
 _atom_site_symmetry_multiplicity
 _atom_site_fract_x
 _atom_site_fract_y
 _atom_site_fract_z
 _atom_site_occupancy
  Sm  Sm0  1  0.44230000  0.29995000  0.85502000  1.0
  Sm  Sm1  1  0.94230000  0.20005000  0.64499000  1.0
  Sm  Sm2  1  0.55770000  0.70005000  0.14498000  1.0
  Sm  Sm3  1  0.05769000  0.79995000  0.35502000  1.0
  Ag  Ag4  1  0.94885000  0.37186000  0.02119000  1.0
  Ag  Ag5  1  0.44882000  0.12813000  0.47882000  1.0
  Ag  Ag6  1  0.05117000  0.62814000  0.97881000  1.0
  Ag  Ag7  1  0.55119000  0.87187000  0.52119000  1.0
  H  H8  1  0.12268000  0.13904000  0.88586000  1.0
  H  H9  1  0.62267000  0.36096000  0.61413000  1.0
  H  H10  1  0.87733000  0.86096000  0.11414000  1.0
  H  H11  1  0.37733000  0.63904000  0.38586000  1.0
  H  H12  1  0.32019000  0.09347000  0.88540000  1.0
  H  H13  1  0.82018000  0.40653000  0.61460000  1.0
  H  H14  1  0.67982000  0.90653000  0.11461000  1.0
  H  H15  1  0.17982000  0.59347000  0.38540000  1.0
  H  H16  1  0.52209000  0.19938000  0.73142000  1.0
  H  H17  1  0.02210000  0.30061000  0.76858000  1.0
  H  H18  1  0.47790000  0.80062000  0.26857000  1.0
  H  H19  1  0.97790000  0.69939000  0.23143000  1.0
  H  H20  1  0.35966000  0.27597000  0.70354000  1.0
  H  H21  1  0.85966000  0.22403000  0.79646000  1.0
  H  H22  1  0.64036000  0.72404000  0.29645000  1.0
  H  H23  1  0.14035000  0.77597000  0.20354000  1.0
  H  H24  1  0.76017000  0.43675000  0.77622000  1.0
  H  H25  1  0.26017000  0.06324000  0.72379000  1.0
  H  H26  1  0.23983000  0.56324000  0.22379000  1.0
  H  H27  1  0.73983000  0.93675000  0.27621000  1.0
  H  H28  1  0.66770000  0.37448000  0.72792000  1.0
  H  H29  1  0.16772000  0.12552000  0.77208000  1.0
  H  H30  1  0.33230000  0.62551000  0.27208000  1.0
  H  H31  1  0.83229000  0.87449000  0.22792000  1.0
  H  H32  1  0.86153000  0.04526000  0.05981000  1.0
  H  H33  1  0.36149000  0.45474000  0.44019000  1.0
  H  H34  1  0.13849000  0.95473000  0.94019000  1.0
  H  H35  1  0.63850000  0.54527000  0.55980000  1.0
  H  H36  1  0.64574000  0.03441000  0.16553000  1.0
  H  H37  1  0.14571000  0.46559000  0.33447000  1.0
  H  H38  1  0.35426000  0.96558000  0.83447000  1.0
  H  H39  1  0.85428000  0.53441000  0.66552000  1.0
  H  H40  1  0.34229000  0.11898000  0.14384000  1.0
  H  H41  1  0.84226000  0.38102000  0.35616000  1.0
  H  H42  1  0.65772000  0.88101000  0.85616000  1.0
  H  H43  1  0.15773000  0.61898000  0.64384000  1.0
  H  H44  1  0.59686000  0.65555000  0.91619000  1.0
  H  H45  1  0.09685000  0.84444000  0.58381000  1.0
  H  H46  1  0.40312000  0.34444000  0.08382000  1.0
  H  H47  1  0.90313000  0.15556000  0.41618000  1.0
  H  H48  1  0.31549000  0.74688000  0.85957000  1.0
  H  H49  1  0.81548000  0.75312000  0.64044000  1.0
  H  H50  1  0.68449000  0.25312000  0.14045000  1.0
  H  H51  1  0.18449000  0.24688000  0.35955000  1.0
  H  H52  1  0.07566000  0.65481000  0.80777000  1.0
  H  H53  1  0.57566000  0.84520000  0.69224000  1.0
  H  H54  1  0.92432000  0.34520000  0.19223000  1.0
  H  H55  1  0.42432000  0.15481000  0.30776000  1.0
  C  C56  1  0.78659000  0.14313000  0.92149000  1.0
  C  C57  1  0.28655000  0.35687000  0.57850000  1.0
  C  C58  1  0.21342000  0.85687000  0.07851000  1.0
  C  C59  1  0.71345000  0.64314000  0.42149000  1.0
  C  C60  1  0.66813000  0.13048000  0.98699000  1.0
  C  C61  1  0.16810000  0.36953000  0.51301000  1.0
  C  C62  1  0.33190000  0.86953000  0.01301000  1.0
  C  C63  1  0.83189000  0.63048000  0.48698000  1.0
  C  C64  1  0.72594000  0.07859000  0.05424000  1.0
  C  C65  1  0.22589000  0.42141000  0.44575000  1.0
  C  C66  1  0.27409000  0.92140000  0.94575000  1.0
  C  C67  1  0.77411000  0.57859000  0.55424000  1.0
  C  C68  1  0.60720000  0.07285000  0.11170000  1.0
  C  C69  1  0.10714000  0.42715000  0.38829000  1.0
  C  C70  1  0.39282000  0.92714000  0.88830000  1.0
  C  C71  1  0.89284000  0.57286000  0.61170000  1.0
  C  C72  1  0.43788000  0.12024000  0.10047000  1.0
  C  C73  1  0.93783000  0.37976000  0.39953000  1.0
  C  C74  1  0.56214000  0.87976000  0.89953000  1.0
  C  C75  1  0.06217000  0.62024000  0.60046000  1.0
  C  C76  1  0.39512000  0.17412000  0.03207000  1.0
  C  C77  1  0.89509000  0.32588000  0.46794000  1.0
  C  C78  1  0.60490000  0.82589000  0.96793000  1.0
  C  C79  1  0.10491000  0.67412000  0.53206000  1.0
  C  C80  1  0.23254000  0.24125000  0.01533000  1.0
  C  C81  1  0.73251000  0.25874000  0.48468000  1.0
  C  C82  1  0.76747000  0.75874000  0.98468000  1.0
  C  C83  1  0.26749000  0.74127000  0.51532000  1.0
  C  C84  1  0.65899000  0.45814000  0.93063000  1.0
  C  C85  1  0.15898000  0.04185000  0.56938000  1.0
  C  C86  1  0.34100000  0.54185000  0.06937000  1.0
  C  C87  1  0.84101000  0.95815000  0.43063000  1.0
  C  C88  1  0.50760000  0.52226000  0.89294000  1.0
  C  C89  1  0.00759000  0.97774000  0.60707000  1.0
  C  C90  1  0.49239000  0.47774000  0.10707000  1.0
  C  C91  1  0.99239000  0.02226000  0.39293000  1.0
  C  C92  1  0.49021000  0.62058000  0.89209000  1.0
  C  C93  1  0.99020000  0.87942000  0.60791000  1.0
  C  C94  1  0.50977000  0.37942000  0.10791000  1.0
  C  C95  1  0.00977000  0.12058000  0.39209000  1.0
  C  C96  1  0.33409000  0.67013000  0.86090000  1.0
  C  C97  1  0.83409000  0.82986000  0.63910000  1.0
  C  C98  1  0.66589000  0.32986000  0.13911000  1.0
  C  C99  1  0.16588000  0.17014000  0.36090000  1.0
  C  C100  1  0.20149000  0.62021000  0.83145000  1.0
  C  C101  1  0.70149000  0.87979000  0.66855000  1.0
  C  C102  1  0.79849000  0.37979000  0.16855000  1.0
  C  C103  1  0.29849000  0.12022000  0.33145000  1.0
  C  C104  1  0.23417000  0.52274000  0.83201000  1.0
  C  C105  1  0.73417000  0.97726000  0.66799000  1.0
  C  C106  1  0.76583000  0.47726000  0.16798000  1.0
  C  C107  1  0.26583000  0.02274000  0.33202000  1.0
  C  C108  1  0.10282000  0.46244000  0.80026000  1.0
  C  C109  1  0.60280000  0.03757000  0.69974000  1.0
  C  C110  1  0.89718000  0.53756000  0.19975000  1.0
  C  C111  1  0.39718000  0.96244000  0.30026000  1.0
  N  N112  1  0.50751000  0.17736000  0.97670000  1.0
  N  N113  1  0.00749000  0.32264000  0.52330000  1.0
  N  N114  1  0.49251000  0.82264000  0.02330000  1.0
  N  N115  1  0.99251000  0.67737000  0.47669000  1.0
  N  N116  1  0.38411000  0.47584000  0.86191000  1.0
  N  N117  1  0.88410000  0.02416000  0.63808000  1.0
  N  N118  1  0.61588000  0.52415000  0.13809000  1.0
  N  N119  1  0.11589000  0.97585000  0.36191000  1.0
  O  O120  1  0.71357000  0.19137000  0.86328000  1.0
  O  O121  1  0.21354000  0.30862000  0.63671000  1.0
  O  O122  1  0.28644000  0.80862000  0.13671000  1.0
  O  O123  1  0.78649000  0.69138000  0.36328000  1.0
  O  O124  1  0.94439000  0.10702000  0.92935000  1.0
  O  O125  1  0.44435000  0.39299000  0.57065000  1.0
  O  O126  1  0.05563000  0.89298000  0.07066000  1.0
  O  O127  1  0.55567000  0.60702000  0.42934000  1.0
  O  O128  1  0.22212000  0.29462000  0.95257000  1.0
  O  O129  1  0.72210000  0.20537000  0.54743000  1.0
  O  O130  1  0.77789000  0.70537000  0.04743000  1.0
  O  O131  1  0.27792000  0.79463000  0.45257000  1.0
  O  O132  1  0.12351000  0.24511000  0.06585000  1.0
  O  O133  1  0.62348000  0.25489000  0.43415000  1.0
  O  O134  1  0.87652000  0.75490000  0.93415000  1.0
  O  O135  1  0.37656000  0.74510000  0.56584000  1.0
  O  O136  1  0.65918000  0.37022000  0.92583000  1.0
  O  O137  1  0.15919000  0.12977000  0.57416000  1.0
  O  O138  1  0.34081000  0.62978000  0.07416000  1.0
  O  O139  1  0.84081000  0.87023000  0.42584000  1.0
  O  O140  1  0.77252000  0.49378000  0.96732000  1.0
  O  O141  1  0.27252000  0.00620000  0.53269000  1.0
  O  O142  1  0.22746000  0.50620000  0.03268000  1.0
  O  O143  1  0.72747000  0.99380000  0.46733000  1.0
  O  O144  1  0.16227000  0.37852000  0.79610000  1.0
  O  O145  1  0.66226000  0.12147000  0.70390000  1.0
  O  O146  1  0.83774000  0.62148000  0.20390000  1.0
  O  O147  1  0.33773000  0.87853000  0.29610000  1.0
  O  O148  1  0.94865000  0.49849000  0.78073000  1.0
  O  O149  1  0.44863000  0.00151000  0.71926000  1.0
  O  O150  1  0.05136000  0.50151000  0.21927000  1.0
  O  O151  1  0.55136000  0.99849000  0.28074000  1.0
  O  O152  1  0.24799000  0.14987000  0.86186000  1.0
  O  O153  1  0.74798000  0.35013000  0.63814000  1.0
  O  O154  1  0.75201000  0.85013000  0.13814000  1.0
  O  O155  1  0.25202000  0.64987000  0.36186000  1.0
  O  O156  1  0.44925000  0.25312000  0.74317000  1.0
  O  O157  1  0.94924000  0.24688000  0.75683000  1.0
  O  O158  1  0.55075000  0.74688000  0.25683000  1.0
  O  O159  1  0.05076000  0.75312000  0.24317000  1.0
  O  O160  1  0.64272000  0.40452000  0.76788000  1.0
  O  O161  1  0.14273000  0.09549000  0.73212000  1.0
  O  O162  1  0.35729000  0.59547000  0.23212000  1.0
  O  O163  1  0.85728000  0.90452000  0.26788000  1.0
