# generated using pymatgen
data_LiH8C14NO6
_symmetry_space_group_name_H-M   'P 1'
_cell_length_a   4.86173000
_cell_length_b   13.06000000
_cell_length_c   18.88580000
_cell_angle_alpha   90.00030000
_cell_angle_beta   90.00000000
_cell_angle_gamma   89.99980000
_symmetry_Int_Tables_number   1
_chemical_formula_structural   LiH8C14NO6
_chemical_formula_sum   'Li4 H32 C56 N4 O24'
_cell_volume   1199.13864524
_cell_formula_units_Z   4
loop_
 _symmetry_equiv_pos_site_id
 _symmetry_equiv_pos_as_xyz
  1  'x, y, z'
loop_
 _atom_site_type_symbol
 _atom_site_label
 _atom_site_symmetry_multiplicity
 _atom_site_fract_x
 _atom_site_fract_y
 _atom_site_fract_z
 _atom_site_occupancy
  Li  Li0  1  0.31568000  0.30314000  0.53176000  1.0
  Li  Li1  1  0.81568000  0.19685000  0.46822000  1.0
  Li  Li2  1  0.68430000  0.80315000  0.96824000  1.0
  Li  Li3  1  0.18432000  0.69688000  0.03177000  1.0
  H  H4  1  0.58308000  0.38043000  0.64505000  1.0
  H  H5  1  0.08312000  0.11956000  0.35495000  1.0
  H  H6  1  0.41693000  0.88046000  0.85495000  1.0
  H  H7  1  0.91691000  0.61956000  0.14504000  1.0
  H  H8  1  0.76102000  0.36913000  0.57615000  1.0
  H  H9  1  0.26103000  0.13086000  0.42385000  1.0
  H  H10  1  0.23896000  0.86914000  0.92383000  1.0
  H  H11  1  0.73898000  0.63087000  0.07615000  1.0
  H  H12  1  0.71124000  0.33717000  0.21427000  1.0
  H  H13  1  0.21125000  0.16283000  0.78572000  1.0
  H  H14  1  0.28877000  0.83717000  0.28573000  1.0
  H  H15  1  0.78870000  0.66282000  0.71428000  1.0
  H  H16  1  0.79456000  0.25937000  0.33194000  1.0
  H  H17  1  0.29461000  0.24061000  0.66805000  1.0
  H  H18  1  0.20543000  0.75938000  0.16806000  1.0
  H  H19  1  0.70541000  0.74063000  0.83194000  1.0
  H  H20  1  0.41282000  0.67382000  0.51782000  1.0
  H  H21  1  0.91281000  0.82617000  0.48218000  1.0
  H  H22  1  0.58721000  0.17383000  0.98219000  1.0
  H  H23  1  0.08716000  0.32618000  0.01783000  1.0
  H  H24  1  0.74454000  0.53110000  0.53300000  1.0
  H  H25  1  0.24452000  0.96889000  0.46700000  1.0
  H  H26  1  0.25549000  0.03110000  0.96701000  1.0
  H  H27  1  0.75544000  0.46891000  0.03300000  1.0
  H  H28  1  0.36815000  0.76116000  0.40118000  1.0
  H  H29  1  0.86816000  0.73883000  0.59881000  1.0
  H  H30  1  0.63185000  0.26117000  0.09883000  1.0
  H  H31  1  0.13182000  0.23883000  0.90119000  1.0
  H  H32  1  0.65818000  0.70212000  0.29857000  1.0
  H  H33  1  0.15819000  0.79788000  0.70142000  1.0
  H  H34  1  0.34183000  0.20212000  0.20144000  1.0
  H  H35  1  0.84180000  0.29787000  0.79858000  1.0
  C  C36  1  0.08057000  0.44984000  0.43522000  1.0
  C  C37  1  0.58057000  0.05015000  0.56477000  1.0
  C  C38  1  0.91944000  0.94984000  0.06479000  1.0
  C  C39  1  0.41944000  0.55017000  0.93522000  1.0
  C  C40  1  0.88578000  0.53615000  0.42495000  1.0
  C  C41  1  0.38578000  0.96384000  0.57504000  1.0
  C  C42  1  0.11424000  0.03615000  0.07505000  1.0
  C  C43  1  0.61421000  0.46385000  0.92496000  1.0
  C  C44  1  0.25872000  0.41910000  0.37677000  1.0
  C  C45  1  0.75872000  0.08089000  0.62322000  1.0
  C  C46  1  0.74129000  0.91910000  0.12323000  1.0
  C  C47  1  0.24128000  0.58091000  0.87677000  1.0
  C  C48  1  0.37136000  0.42916000  0.25145000  1.0
  C  C49  1  0.87135000  0.07084000  0.74854000  1.0
  C  C50  1  0.62867000  0.92916000  0.24856000  1.0
  C  C51  1  0.12861000  0.57083000  0.75145000  1.0
  C  C52  1  0.86001000  0.58521000  0.35896000  1.0
  C  C53  1  0.36001000  0.91478000  0.64103000  1.0
  C  C54  1  0.14002000  0.08521000  0.14105000  1.0
  C  C55  1  0.63999000  0.41479000  0.85896000  1.0
  C  C56  1  0.02777000  0.55181000  0.29827000  1.0
  C  C57  1  0.52776000  0.94820000  0.70172000  1.0
  C  C58  1  0.97226000  0.05180000  0.20173000  1.0
  C  C59  1  0.47222000  0.44820000  0.79828000  1.0
  C  C60  1  0.58419000  0.35765000  0.25966000  1.0
  C  C61  1  0.08421000  0.14235000  0.74033000  1.0
  C  C62  1  0.41582000  0.85765000  0.24034000  1.0
  C  C63  1  0.91578000  0.64235000  0.75967000  1.0
  C  C64  1  0.63080000  0.31530000  0.32507000  1.0
  C  C65  1  0.13083000  0.18469000  0.67492000  1.0
  C  C66  1  0.36920000  0.81531000  0.17493000  1.0
  C  C67  1  0.86917000  0.68470000  0.82507000  1.0
  C  C68  1  0.53924000  0.64958000  0.47320000  1.0
  C  C69  1  0.03925000  0.85041000  0.52679000  1.0
  C  C70  1  0.46078000  0.14958000  0.02681000  1.0
  C  C71  1  0.96072000  0.35043000  0.97321000  1.0
  C  C72  1  0.47037000  0.34159000  0.38622000  1.0
  C  C73  1  0.97039000  0.15839000  0.61376000  1.0
  C  C74  1  0.52964000  0.84160000  0.11378000  1.0
  C  C75  1  0.02963000  0.65842000  0.88623000  1.0
  C  C76  1  0.21662000  0.46391000  0.30867000  1.0
  C  C77  1  0.71661000  0.03608000  0.69132000  1.0
  C  C78  1  0.78341000  0.96391000  0.19134000  1.0
  C  C79  1  0.28339000  0.53609000  0.80867000  1.0
  C  C80  1  0.72435000  0.56921000  0.48203000  1.0
  C  C81  1  0.22434000  0.93078000  0.51797000  1.0
  C  C82  1  0.27568000  0.06921000  0.01798000  1.0
  C  C83  1  0.77563000  0.43080000  0.98203000  1.0
  C  C84  1  0.51402000  0.69837000  0.40743000  1.0
  C  C85  1  0.01403000  0.80163000  0.59257000  1.0
  C  C86  1  0.48599000  0.19838000  0.09258000  1.0
  C  C87  1  0.98595000  0.30163000  0.90743000  1.0
  C  C88  1  0.67412000  0.66634000  0.35051000  1.0
  C  C89  1  0.17412000  0.83366000  0.64948000  1.0
  C  C90  1  0.32590000  0.16634000  0.14950000  1.0
  C  C91  1  0.82586000  0.33366000  0.85052000  1.0
  N  N92  1  0.31708000  0.45993000  0.17794000  1.0
  N  N93  1  0.81704000  0.04009000  0.82206000  1.0
  N  N94  1  0.68295000  0.95992000  0.32207000  1.0
  N  N95  1  0.18287000  0.54006000  0.67794000  1.0
  O  O96  1  0.52664000  0.29793000  0.44553000  1.0
  O  O97  1  0.02666000  0.20207000  0.55446000  1.0
  O  O98  1  0.47335000  0.79794000  0.05448000  1.0
  O  O99  1  0.97337000  0.70209000  0.94553000  1.0
  O  O100  1  0.07819000  0.40469000  0.49381000  1.0
  O  O101  1  0.57819000  0.09530000  0.50618000  1.0
  O  O102  1  0.92180000  0.90470000  0.00619000  1.0
  O  O103  1  0.42184000  0.59532000  0.99381000  1.0
  O  O104  1  0.01971000  0.59847000  0.24086000  1.0
  O  O105  1  0.51971000  0.90154000  0.75913000  1.0
  O  O106  1  0.98034000  0.09846000  0.25915000  1.0
  O  O107  1  0.48027000  0.40154000  0.74086000  1.0
  O  O108  1  0.58610000  0.34979000  0.59780000  1.0
  O  O109  1  0.08611000  0.15019000  0.40220000  1.0
  O  O110  1  0.41391000  0.84983000  0.90220000  1.0
  O  O111  1  0.91389000  0.65020000  0.09780000  1.0
  O  O112  1  0.11235000  0.42247000  0.14843000  1.0
  O  O113  1  0.61228000  0.07755000  0.85155000  1.0
  O  O114  1  0.88769000  0.92245000  0.35157000  1.0
  O  O115  1  0.38761000  0.57752000  0.64843000  1.0
  O  O116  1  0.49459000  0.51232000  0.14807000  1.0
  O  O117  1  0.99453000  0.98770000  0.85193000  1.0
  O  O118  1  0.50547000  0.01232000  0.35193000  1.0
  O  O119  1  0.00538000  0.48766000  0.64809000  1.0
