# generated using pymatgen
data_NiH12C8O7
_symmetry_space_group_name_H-M   'P 1'
_cell_length_a   8.70391000
_cell_length_b   10.73890000
_cell_length_c   10.91450000
_cell_angle_alpha   107.55000000
_cell_angle_beta   90.00000000
_cell_angle_gamma   90.00000000
_symmetry_Int_Tables_number   1
_chemical_formula_structural   NiH12C8O7
_chemical_formula_sum   'Ni4 H48 C32 O28'
_cell_volume   972.69763229
_cell_formula_units_Z   4
loop_
 _symmetry_equiv_pos_site_id
 _symmetry_equiv_pos_as_xyz
  1  'x, y, z'
loop_
 _atom_site_type_symbol
 _atom_site_label
 _atom_site_symmetry_multiplicity
 _atom_site_fract_x
 _atom_site_fract_y
 _atom_site_fract_z
 _atom_site_occupancy
  Ni  Ni0  1  0.22326000  0.71070000  0.60003000  1.0
  Ni  Ni1  1  0.72423000  0.78883000  0.39984000  1.0
  Ni  Ni2  1  0.77622000  0.28895000  0.39989000  1.0
  Ni  Ni3  1  0.27600000  0.21087000  0.60016000  1.0
  H  H4  1  0.28217000  0.79770000  0.22803000  1.0
  H  H5  1  0.78148000  0.70242000  0.77184000  1.0
  H  H6  1  0.71807000  0.20235000  0.77215000  1.0
  H  H7  1  0.21819000  0.29792000  0.22808000  1.0
  H  H8  1  0.50718000  0.98603000  0.33043000  1.0
  H  H9  1  0.00593000  0.51372000  0.67005000  1.0
  H  H10  1  0.49331000  0.01385000  0.67005000  1.0
  H  H11  1  0.99331000  0.48620000  0.33021000  1.0
  H  H12  1  0.54437000  0.00450000  0.11251000  1.0
  H  H13  1  0.04269000  0.49563000  0.88828000  1.0
  H  H14  1  0.45679000  0.99568000  0.88826000  1.0
  H  H15  1  0.95679000  0.50468000  0.11216000  1.0
  H  H16  1  0.36249000  0.92555000  0.09450000  1.0
  H  H17  1  0.86127000  0.57509000  0.90595000  1.0
  H  H18  1  0.63827000  0.07488000  0.90581000  1.0
  H  H19  1  0.13821000  0.42530000  0.09438000  1.0
  H  H20  1  0.48307000  0.72727000  0.95550000  1.0
  H  H21  1  0.98230000  0.77322000  0.04461000  1.0
  H  H22  1  0.51754000  0.27308000  0.04469000  1.0
  H  H23  1  0.01716000  0.22737000  0.95526000  1.0
  H  H24  1  0.65861000  0.81314000  0.97405000  1.0
  H  H25  1  0.15759000  0.68707000  0.02626000  1.0
  H  H26  1  0.34219000  0.18712000  0.02640000  1.0
  H  H27  1  0.84181000  0.31343000  0.97399000  1.0
  H  H28  1  0.71867000  0.66016000  0.09781000  1.0
  H  H29  1  0.21814000  0.83966000  0.90208000  1.0
  H  H30  1  0.28165000  0.33983000  0.90243000  1.0
  H  H31  1  0.78177000  0.16027000  0.09763000  1.0
  H  H32  1  0.40350000  0.60712000  0.09840000  1.0
  H  H33  1  0.90290000  0.89290000  0.90164000  1.0
  H  H34  1  0.59679000  0.39305000  0.90160000  1.0
  H  H35  1  0.09705000  0.10737000  0.09810000  1.0
  H  H36  1  0.47999000  0.66767000  0.70431000  1.0
  H  H37  1  0.97986000  0.83254000  0.29426000  1.0
  H  H38  1  0.51989000  0.33240000  0.29525000  1.0
  H  H39  1  0.01967000  0.16743000  0.70493000  1.0
  H  H40  1  0.50340000  0.76975000  0.62479000  1.0
  H  H41  1  0.00526000  0.73045000  0.37352000  1.0
  H  H42  1  0.49567000  0.23036000  0.37482000  1.0
  H  H43  1  0.99537000  0.26941000  0.62533000  1.0
  H  H44  1  0.32066000  0.47241000  0.56584000  1.0
  H  H45  1  0.82125000  0.02742000  0.43393000  1.0
  H  H46  1  0.67897000  0.52737000  0.43486000  1.0
  H  H47  1  0.17877000  0.97236000  0.56554000  1.0
  H  H48  1  0.34967000  0.50578000  0.43115000  1.0
  H  H49  1  0.85017000  0.99427000  0.56884000  1.0
  H  H50  1  0.65040000  0.49376000  0.56954000  1.0
  H  H51  1  0.15048000  0.00596000  0.43087000  1.0
  C  C52  1  0.39842000  0.78899000  0.26304000  1.0
  C  C53  1  0.89780000  0.71099000  0.73695000  1.0
  C  C54  1  0.60184000  0.21098000  0.73709000  1.0
  C  C55  1  0.10191000  0.28913000  0.26297000  1.0
  C  C56  1  0.50504000  0.89766000  0.24797000  1.0
  C  C57  1  0.00407000  0.60227000  0.75233000  1.0
  C  C58  1  0.49539000  0.10233000  0.75237000  1.0
  C  C59  1  0.99539000  0.39777000  0.24783000  1.0
  C  C60  1  0.48442000  0.91578000  0.11559000  1.0
  C  C61  1  0.98326000  0.58447000  0.88484000  1.0
  C  C62  1  0.51629000  0.08446000  0.88481000  1.0
  C  C63  1  0.01622000  0.41579000  0.11543000  1.0
  C  C64  1  0.56099000  0.78971000  0.02681000  1.0
  C  C65  1  0.06012000  0.71052000  0.97341000  1.0
  C  C66  1  0.43961000  0.21053000  0.97347000  1.0
  C  C67  1  0.93940000  0.28986000  0.02667000  1.0
  C  C68  1  0.61699000  0.72238000  0.12440000  1.0
  C  C69  1  0.11633000  0.77754000  0.87565000  1.0
  C  C70  1  0.38339000  0.27768000  0.87583000  1.0
  C  C71  1  0.88344000  0.22251000  0.12423000  1.0
  C  C72  1  0.48052000  0.66095000  0.17580000  1.0
  C  C73  1  0.97992000  0.83903000  0.82423000  1.0
  C  C74  1  0.51972000  0.33908000  0.82427000  1.0
  C  C75  1  0.01997000  0.16109000  0.17555000  1.0
  C  C76  1  0.38695000  0.78762000  0.40117000  1.0
  C  C77  1  0.88674000  0.71212000  0.59871000  1.0
  C  C78  1  0.61312000  0.21213000  0.59887000  1.0
  C  C79  1  0.11309000  0.28770000  0.40113000  1.0
  C  C80  1  0.52856000  0.56907000  0.25296000  1.0
  C  C81  1  0.02787000  0.93087000  0.74713000  1.0
  C  C82  1  0.47159000  0.43074000  0.74700000  1.0
  C  C83  1  0.97186000  0.06910000  0.25250000  1.0
  O  O84  1  0.43792000  0.74821000  0.68981000  1.0
  O  O85  1  0.93844000  0.75207000  0.30946000  1.0
  O  O86  1  0.56173000  0.25198000  0.31022000  1.0
  O  O87  1  0.06153000  0.24780000  0.68987000  1.0
  O  O88  1  0.26117000  0.74615000  0.43288000  1.0
  O  O89  1  0.76122000  0.75385000  0.56691000  1.0
  O  O90  1  0.73892000  0.25340000  0.56704000  1.0
  O  O91  1  0.23869000  0.24601000  0.43285000  1.0
  O  O92  1  0.28437000  0.52307000  0.50764000  1.0
  O  O93  1  0.78540000  0.97645000  0.49200000  1.0
  O  O94  1  0.71541000  0.47661000  0.49288000  1.0
  O  O95  1  0.21539000  0.02315000  0.50756000  1.0
  O  O96  1  0.44512000  0.47190000  0.25015000  1.0
  O  O97  1  0.94479000  0.02833000  0.75029000  1.0
  O  O98  1  0.55502000  0.52784000  0.74954000  1.0
  O  O99  1  0.05493000  0.97163000  0.24932000  1.0
  O  O100  1  0.50285000  0.82165000  0.47511000  1.0
  O  O101  1  0.00247000  0.67754000  0.52474000  1.0
  O  O102  1  0.49726000  0.17803000  0.52494000  1.0
  O  O103  1  0.99726000  0.32192000  0.47509000  1.0
  O  O104  1  0.65169000  0.59866000  0.32082000  1.0
  O  O105  1  0.15066000  0.90089000  0.67886000  1.0
  O  O106  1  0.34831000  0.40107000  0.67933000  1.0
  O  O107  1  0.84884000  0.09888000  0.32053000  1.0
  O  O108  1  0.65672000  0.83479000  0.23476000  1.0
  O  O109  1  0.15590000  0.66494000  0.76537000  1.0
  O  O110  1  0.34365000  0.16517000  0.76551000  1.0
  O  O111  1  0.84368000  0.33488000  0.23464000  1.0
