# generated using pymatgen
data_ZnH4C8(N2O)2
_symmetry_space_group_name_H-M   'P 1'
_cell_length_a   7.21732000
_cell_length_b   9.70693174
_cell_length_c   17.32300000
_cell_angle_alpha   102.12735233
_cell_angle_beta   90.00880000
_cell_angle_gamma   111.79700591
_symmetry_Int_Tables_number   1
_chemical_formula_structural   ZnH4C8(N2O)2
_chemical_formula_sum   'Zn4 H16 C32 N16 O8'
_cell_volume   1097.60895875
_cell_formula_units_Z   4
loop_
 _symmetry_equiv_pos_site_id
 _symmetry_equiv_pos_as_xyz
  1  'x, y, z'
loop_
 _atom_site_type_symbol
 _atom_site_label
 _atom_site_symmetry_multiplicity
 _atom_site_fract_x
 _atom_site_fract_y
 _atom_site_fract_z
 _atom_site_occupancy
  Zn  Zn0  1  0.37135000  0.18568000  0.24870000  1.0
  Zn  Zn1  1  0.81095000  0.52926000  0.24589000  1.0
  Zn  Zn2  1  0.18490000  0.81409000  0.75127000  1.0
  Zn  Zn3  1  0.28121000  0.47067000  0.75403000  1.0
  H  H4  1  0.05887000  0.19562000  0.39117000  1.0
  H  H5  1  0.10216000  0.29103000  0.53777000  1.0
  H  H6  1  0.24223000  0.74791000  0.50996000  1.0
  H  H7  1  0.19690000  0.65501000  0.36344000  1.0
  H  H8  1  0.03804000  0.95133000  0.10547000  1.0
  H  H9  1  0.07309000  0.87682000  0.96073000  1.0
  H  H10  1  0.25619000  0.52270000  0.99983000  1.0
  H  H11  1  0.22579000  0.59585000  0.14430000  1.0
  H  H12  1  0.86367000  0.80447000  0.60886000  1.0
  H  H13  1  0.81189000  0.70903000  0.46228000  1.0
  H  H14  1  0.49353000  0.25244000  0.49007000  1.0
  H  H15  1  0.54049000  0.34532000  0.63651000  1.0
  H  H16  1  0.08606000  0.04856000  0.89455000  1.0
  H  H17  1  0.19592000  0.12311000  0.03928000  1.0
  H  H18  1  0.73252000  0.47724000  0.00013000  1.0
  H  H19  1  0.62882000  0.40408000  0.85568000  1.0
  C  C20  1  0.08022000  0.36005000  0.28184000  1.0
  C  C21  1  0.12053000  0.41889000  0.36776000  1.0
  C  C22  1  0.09705000  0.31632000  0.41693000  1.0
  C  C23  1  0.12175000  0.36915000  0.49877000  1.0
  C  C24  1  0.17220000  0.52452000  0.53220000  1.0
  C  C25  1  0.20183000  0.62748000  0.48319000  1.0
  C  C26  1  0.17516000  0.57486000  0.40128000  1.0
  C  C27  1  0.19010000  0.57761000  0.61994000  1.0
  C  C28  1  0.12081000  0.83114000  0.21935000  1.0
  C  C29  1  0.13438000  0.78082000  0.13433000  1.0
  C  C30  1  0.08913000  0.85921000  0.08247000  1.0
  C  C31  1  0.10979000  0.81926000  0.00216000  1.0
  C  C32  1  0.17393000  0.70056000  0.97243000  1.0
  C  C33  1  0.20997000  0.61700000  0.02347000  1.0
  C  C34  1  0.19174000  0.65778000  0.10432000  1.0
  C  C35  1  0.20465000  0.66678000  0.88641000  1.0
  C  C36  1  0.71959000  0.64003000  0.71816000  1.0
  C  C37  1  0.70109000  0.58139000  0.63224000  1.0
  C  C38  1  0.78076000  0.68384000  0.58309000  1.0
  C  C39  1  0.75285000  0.63098000  0.50126000  1.0
  C  C40  1  0.64765000  0.47569000  0.46782000  1.0
  C  C41  1  0.57379000  0.37280000  0.51682000  1.0
  C  C42  1  0.59941000  0.42545000  0.59870000  1.0
  C  C43  1  0.61282000  0.42260000  0.38008000  1.0
  C  C44  1  0.28872000  0.16875000  0.78063000  1.0
  C  C45  1  0.35254000  0.21912000  0.86567000  1.0
  C  C46  1  0.22917000  0.14076000  0.91756000  1.0
  C  C47  1  0.28999000  0.18074000  0.99788000  1.0
  C  C48  1  0.47269000  0.29944000  0.02761000  1.0
  C  C49  1  0.59203000  0.38298000  0.97651000  1.0
  C  C50  1  0.53289000  0.34216000  0.89566000  1.0
  C  C51  1  0.53776000  0.33308000  0.11358000  1.0
  N  N52  1  0.96060000  0.39042000  0.23387000  1.0
  N  N53  1  0.95354000  0.30584000  0.15984000  1.0
  N  N54  1  0.06413000  0.22761000  0.16223000  1.0
  N  N55  1  0.14653000  0.25933000  0.23772000  1.0
  N  N56  1  0.00546000  0.74565000  0.26617000  1.0
  N  N57  1  0.03263000  0.83729000  0.33994000  1.0
  N  N58  1  0.15867000  0.97250000  0.33830000  1.0
  N  N59  1  0.21746000  0.97308000  0.26351000  1.0
  N  N60  1  0.56972000  0.60954000  0.76614000  1.0
  N  N61  1  0.64734000  0.69380000  0.84023000  1.0
  N  N62  1  0.83610000  0.77193000  0.83785000  1.0
  N  N63  1  0.88665000  0.74049000  0.76232000  1.0
  N  N64  1  0.25919000  0.25431000  0.73375000  1.0
  N  N65  1  0.19472000  0.16265000  0.65999000  1.0
  N  N66  1  0.18536000  0.02738000  0.66168000  1.0
  N  N67  1  0.24340000  0.02677000  0.73650000  1.0
  O  O68  1  0.25685000  0.72113000  0.64957000  1.0
  O  O69  1  0.13430000  0.47540000  0.66040000  1.0
  O  O70  1  0.26072000  0.77832000  0.85222000  1.0
  O  O71  1  0.17371000  0.52826000  0.85375000  1.0
  O  O72  1  0.53565000  0.27909000  0.35050000  1.0
  O  O73  1  0.65964000  0.52479000  0.33960000  1.0
  O  O74  1  0.48242000  0.22138000  0.14771000  1.0
  O  O75  1  0.64550000  0.47154000  0.14617000  1.0
