# generated using pymatgen
data_ZnH7C26N6ClO14
_symmetry_space_group_name_H-M   'P 1'
_cell_length_a   14.76810000
_cell_length_b   16.03630000
_cell_length_c   23.75580000
_cell_angle_alpha   89.90930000
_cell_angle_beta   90.16470000
_cell_angle_gamma   89.90960000
_symmetry_Int_Tables_number   1
_chemical_formula_structural   ZnH7C26N6ClO14
_chemical_formula_sum   'Zn2 H14 C52 N12 Cl2 O28'
_cell_volume   5625.94620097
_cell_formula_units_Z   2
loop_
 _symmetry_equiv_pos_site_id
 _symmetry_equiv_pos_as_xyz
  1  'x, y, z'
loop_
 _atom_site_type_symbol
 _atom_site_label
 _atom_site_symmetry_multiplicity
 _atom_site_fract_x
 _atom_site_fract_y
 _atom_site_fract_z
 _atom_site_occupancy
  Zn  Zn0  1  0.40622000  0.49986000  0.49990000  1.0
  Zn  Zn1  1  0.59425000  0.50024000  0.50029000  1.0
  H  H2  1  0.62667000  0.45144000  0.78900000  1.0
  H  H3  1  0.62225000  0.55928000  0.21161000  1.0
  H  H4  1  0.35948000  0.53368000  0.67538000  1.0
  H  H5  1  0.36561000  0.45285000  0.32427000  1.0
  H  H6  1  0.58163000  0.94811000  0.41708000  1.0
  H  H7  1  0.41906000  0.05217000  0.58241000  1.0
  H  H8  1  0.42749000  0.05352000  0.41414000  1.0
  H  H9  1  0.57282000  0.94626000  0.58538000  1.0
  H  H10  1  0.65760000  0.04904000  0.50340000  1.0
  H  H11  1  0.34296000  0.95102000  0.49629000  1.0
  H  H12  1  0.05598000  0.61211000  0.43924000  1.0
  H  H13  1  0.94472000  0.38784000  0.56129000  1.0
  H  H14  1  0.05728000  0.36650000  0.46458000  1.0
  H  H15  1  0.94340000  0.63355000  0.53596000  1.0
  C  C16  1  0.50192000  0.66052000  0.49951000  1.0
  C  C17  1  0.50185000  0.33955000  0.50078000  1.0
  C  C18  1  0.49807000  0.49782000  0.60907000  1.0
  C  C19  1  0.49902000  0.50217000  0.39107000  1.0
  C  C20  1  0.49666000  0.42480000  0.12326000  1.0
  C  C21  1  0.48680000  0.57296000  0.87685000  1.0
  C  C22  1  0.47462000  0.57950000  0.12117000  1.0
  C  C23  1  0.48203000  0.41703000  0.87894000  1.0
  C  C24  1  0.47927000  0.57691000  0.05874000  1.0
  C  C25  1  0.48703000  0.42001000  0.94136000  1.0
  C  C26  1  0.48363000  0.49935000  0.03007000  1.0
  C  C27  1  0.48331000  0.49759000  0.97003000  1.0
  C  C28  1  0.48896000  0.42360000  0.06097000  1.0
  C  C29  1  0.47995000  0.57345000  0.93914000  1.0
  C  C30  1  0.47609000  0.65007000  0.02748000  1.0
  C  C31  1  0.49210000  0.34692000  0.97263000  1.0
  C  C32  1  0.47465000  0.64832000  0.96824000  1.0
  C  C33  1  0.49130000  0.34858000  0.03187000  1.0
  C  C34  1  0.56800000  0.46978000  0.76399000  1.0
  C  C35  1  0.56597000  0.53554000  0.23643000  1.0
  C  C36  1  0.57351000  0.46971000  0.70522000  1.0
  C  C37  1  0.57128000  0.53641000  0.29525000  1.0
  C  C38  1  0.49839000  0.49398000  0.67245000  1.0
  C  C39  1  0.49920000  0.50539000  0.32768000  1.0
  C  C40  1  0.41864000  0.51618000  0.70019000  1.0
  C  C41  1  0.42255000  0.47566000  0.29972000  1.0
  C  C42  1  0.41283000  0.51574000  0.75855000  1.0
  C  C43  1  0.41687000  0.47503000  0.24133000  1.0
  C  C44  1  0.48861000  0.49284000  0.79092000  1.0
  C  C45  1  0.48977000  0.50481000  0.20923000  1.0
  C  C46  1  0.45964000  0.02887000  0.45219000  1.0
  C  C47  1  0.54087000  0.97120000  0.54735000  1.0
  C  C48  1  0.54572000  0.97210000  0.45383000  1.0
  C  C49  1  0.45489000  0.02797000  0.54569000  1.0
  C  C50  1  0.50094000  0.75030000  0.49945000  1.0
  C  C51  1  0.50208000  0.24976000  0.50094000  1.0
  C  C52  1  0.41277000  0.97357000  0.49781000  1.0
  C  C53  1  0.58781000  0.02645000  0.50176000  1.0
  C  C54  1  0.49864000  0.91439000  0.49934000  1.0
  C  C55  1  0.50202000  0.08566000  0.50004000  1.0
  C  C56  1  0.49923000  0.82628000  0.49940000  1.0
  C  C57  1  0.50218000  0.17377000  0.50061000  1.0
  C  C58  1  0.03101000  0.56283000  0.46686000  1.0
  C  C59  1  0.96960000  0.43717000  0.53370000  1.0
  C  C60  1  0.97116000  0.48808000  0.44746000  1.0
  C  C61  1  0.02943000  0.51195000  0.55312000  1.0
  C  C62  1  0.96885000  0.57449000  0.51955000  1.0
  C  C63  1  0.03177000  0.42553000  0.48102000  1.0
  C  C64  1  0.90699000  0.49962000  0.49967000  1.0
  C  C65  1  0.09357000  0.50041000  0.50090000  1.0
  C  C66  1  0.81103000  0.49937000  0.49939000  1.0
  C  C67  1  0.18951000  0.50066000  0.50114000  1.0
  N  N68  1  0.49053000  0.50352000  0.14873000  1.0
  N  N69  1  0.48921000  0.49411000  0.85141000  1.0
  N  N70  1  0.73262000  0.49964000  0.50094000  1.0
  N  N71  1  0.26790000  0.50037000  0.49957000  1.0
  N  N72  1  0.47704000  0.73337000  0.05520000  1.0
  N  N73  1  0.50166000  0.26409000  0.94490000  1.0
  N  N74  1  0.94375000  0.47486000  0.38833000  1.0
  N  N75  1  0.05685000  0.52501000  0.61229000  1.0
  N  N76  1  0.46711000  0.72978000  0.93832000  1.0
  N  N77  1  0.49304000  0.26691000  0.06185000  1.0
  N  N78  1  0.32538000  0.53871000  0.78397000  1.0
  N  N79  1  0.33240000  0.44388000  0.21583000  1.0
  Cl  Cl80  1  0.67380000  0.43625000  0.67634000  1.0
  Cl  Cl81  1  0.66677000  0.57873000  0.32498000  1.0
  O  O82  1  0.42744000  0.62429000  0.51140000  1.0
  O  O83  1  0.57633000  0.37556000  0.51318000  1.0
  O  O84  1  0.57695000  0.62509000  0.48766000  1.0
  O  O85  1  0.42714000  0.37529000  0.48823000  1.0
  O  O86  1  0.42289000  0.48127000  0.58549000  1.0
  O  O87  1  0.57268000  0.48249000  0.41515000  1.0
  O  O88  1  0.57133000  0.51863000  0.58525000  1.0
  O  O89  1  0.42344000  0.51785000  0.41424000  1.0
  O  O90  1  0.50892000  0.36196000  0.15161000  1.0
  O  O91  1  0.49158000  0.63660000  0.84848000  1.0
  O  O92  1  0.45824000  0.64319000  0.14761000  1.0
  O  O93  1  0.47261000  0.35223000  0.85243000  1.0
  O  O94  1  0.55124000  0.75737000  0.07226000  1.0
  O  O95  1  0.40461000  0.77145000  0.05557000  1.0
  O  O96  1  0.57787000  0.24671000  0.92774000  1.0
  O  O97  1  0.43364000  0.21984000  0.94459000  1.0
  O  O98  1  0.00744000  0.46721000  0.35505000  1.0
  O  O99  1  0.86198000  0.47274000  0.37757000  1.0
  O  O100  1  0.99302000  0.53291000  0.64545000  1.0
  O  O101  1  0.13854000  0.52664000  0.62315000  1.0
  O  O102  1  0.53720000  0.77125000  0.93602000  1.0
  O  O103  1  0.39114000  0.74924000  0.92173000  1.0
  O  O104  1  0.56730000  0.23182000  0.06394000  1.0
  O  O105  1  0.41980000  0.24091000  0.07869000  1.0
  O  O106  1  0.31154000  0.51781000  0.83364000  1.0
  O  O107  1  0.27041000  0.57646000  0.75391000  1.0
  O  O108  1  0.31733000  0.46064000  0.16556000  1.0
  O  O109  1  0.28056000  0.40377000  0.24644000  1.0
