# generated using pymatgen
data_Zn4H4C58Cl24O13F4
_symmetry_space_group_name_H-M   'P 1'
_cell_length_a   21.54910000
_cell_length_b   21.54920000
_cell_length_c   34.44200000
_cell_angle_alpha   90.00070000
_cell_angle_beta   90.00020000
_cell_angle_gamma   89.99980000
_symmetry_Int_Tables_number   1
_chemical_formula_structural   Zn4H4C58Cl24O13F4
_chemical_formula_sum   'Zn8 H8 C116 Cl48 O26 F8'
_cell_volume   15993.68914574
_cell_formula_units_Z   2
loop_
 _symmetry_equiv_pos_site_id
 _symmetry_equiv_pos_as_xyz
  1  'x, y, z'
loop_
 _atom_site_type_symbol
 _atom_site_label
 _atom_site_symmetry_multiplicity
 _atom_site_fract_x
 _atom_site_fract_y
 _atom_site_fract_z
 _atom_site_occupancy
  Zn  Zn0  1  0.44785000  0.55265000  0.03305000  1.0
  Zn  Zn1  1  0.44785000  0.44734000  0.96695000  1.0
  Zn  Zn2  1  0.55215000  0.44734000  0.03305000  1.0
  Zn  Zn3  1  0.55215000  0.55265000  0.96696000  1.0
  Zn  Zn4  1  0.55265000  0.44785000  0.46695000  1.0
  Zn  Zn5  1  0.44735000  0.44785000  0.53305000  1.0
  Zn  Zn6  1  0.44735000  0.55215000  0.46695000  1.0
  Zn  Zn7  1  0.55265000  0.55215000  0.53305000  1.0
  H  H8  1  0.42818000  0.56941000  0.15142000  1.0
  H  H9  1  0.57182000  0.43060000  0.15142000  1.0
  H  H10  1  0.56940000  0.42817000  0.34858000  1.0
  H  H11  1  0.43059000  0.57181000  0.34858000  1.0
  H  H12  1  0.42818000  0.43059000  0.84858000  1.0
  H  H13  1  0.57182000  0.56941000  0.84858000  1.0
  H  H14  1  0.56941000  0.57183000  0.65142000  1.0
  H  H15  1  0.43059000  0.42818000  0.65142000  1.0
  C  C16  1  0.33516000  0.50001000  0.00000000  1.0
  C  C17  1  0.50000000  0.33446000  0.00000000  1.0
  C  C18  1  0.50000000  0.50000000  0.10431000  1.0
  C  C19  1  0.66484000  0.50000000  0.00000000  1.0
  C  C20  1  0.50000000  0.66554000  0.00001000  1.0
  C  C21  1  0.50000000  0.50000000  0.89569000  1.0
  C  C22  1  0.50000000  0.33516000  0.50000000  1.0
  C  C23  1  0.33446000  0.50000000  0.50000000  1.0
  C  C24  1  0.49999000  0.49999000  0.39569000  1.0
  C  C25  1  0.50001000  0.66484000  0.50000000  1.0
  C  C26  1  0.66554000  0.50000000  0.50000000  1.0
  C  C27  1  0.50000000  0.50000000  0.60431000  1.0
  C  C28  1  0.50000000  0.26467000  0.00000000  1.0
  C  C29  1  0.55560000  0.23236000  0.99421000  1.0
  C  C30  1  0.55560000  0.16720000  0.99443000  1.0
  C  C31  1  0.44441000  0.23235000  0.00579000  1.0
  C  C32  1  0.44441000  0.16720000  0.00557000  1.0
  C  C33  1  0.50000000  0.13436000  0.00000000  1.0
  C  C34  1  0.50000000  0.06547000  0.00000000  1.0
  C  C35  1  0.49956000  0.03258000  0.96481000  1.0
  C  C36  1  0.50044000  0.03258000  0.03519000  1.0
  C  C37  1  0.50000000  0.73533000  0.00000000  1.0
  C  C38  1  0.44440000  0.76764000  0.99420000  1.0
  C  C39  1  0.44441000  0.83279000  0.99443000  1.0
  C  C40  1  0.55560000  0.76764000  0.00580000  1.0
  C  C41  1  0.55560000  0.83280000  0.00557000  1.0
  C  C42  1  0.50000000  0.86563000  0.00000000  1.0
  C  C43  1  0.50000000  0.93453000  0.00000000  1.0
  C  C44  1  0.49956000  0.96742000  0.03519000  1.0
  C  C45  1  0.50044000  0.96742000  0.96481000  1.0
  C  C46  1  0.45937000  0.53936000  0.16766000  1.0
  C  C47  1  0.45932000  0.54017000  0.20831000  1.0
  C  C48  1  0.41950000  0.58014000  0.23017000  1.0
  C  C49  1  0.54063000  0.46064000  0.16766000  1.0
  C  C50  1  0.54069000  0.45984000  0.20830000  1.0
  C  C51  1  0.58050000  0.41986000  0.23016000  1.0
  C  C52  1  0.53935000  0.45936000  0.33234000  1.0
  C  C53  1  0.54016000  0.45931000  0.29170000  1.0
  C  C54  1  0.58014000  0.41950000  0.26983000  1.0
  C  C55  1  0.46064000  0.54063000  0.33234000  1.0
  C  C56  1  0.45983000  0.54068000  0.29170000  1.0
  C  C57  1  0.41986000  0.58050000  0.26984000  1.0
  C  C58  1  0.50000000  0.50000000  0.14769000  1.0
  C  C59  1  0.50000000  0.50000000  0.22939000  1.0
  C  C60  1  0.49999000  0.49999000  0.35231000  1.0
  C  C61  1  0.50000000  0.50000000  0.27061000  1.0
  C  C62  1  0.45937000  0.46064000  0.83234000  1.0
  C  C63  1  0.45932000  0.45984000  0.79169000  1.0
  C  C64  1  0.41950000  0.41986000  0.76983000  1.0
  C  C65  1  0.54064000  0.53936000  0.83234000  1.0
  C  C66  1  0.54069000  0.54017000  0.79169000  1.0
  C  C67  1  0.58050000  0.58014000  0.76984000  1.0
  C  C68  1  0.53936000  0.54064000  0.66765000  1.0
  C  C69  1  0.54017000  0.54069000  0.70830000  1.0
  C  C70  1  0.58014000  0.58050000  0.73016000  1.0
  C  C71  1  0.46064000  0.45937000  0.66765000  1.0
  C  C72  1  0.45984000  0.45932000  0.70830000  1.0
  C  C73  1  0.41986000  0.41950000  0.73016000  1.0
  C  C74  1  0.50000000  0.50000000  0.85231000  1.0
  C  C75  1  0.50000000  0.50000000  0.77060000  1.0
  C  C76  1  0.50000000  0.50001000  0.64769000  1.0
  C  C77  1  0.50000000  0.50000000  0.72939000  1.0
  C  C78  1  0.73480000  0.50000000  0.00000000  1.0
  C  C79  1  0.76737000  0.50226000  0.03523000  1.0
  C  C80  1  0.83258000  0.50221000  0.03517000  1.0
  C  C81  1  0.76737000  0.49775000  0.96477000  1.0
  C  C82  1  0.83258000  0.49780000  0.96483000  1.0
  C  C83  1  0.86548000  0.50000000  0.00000000  1.0
  C  C84  1  0.93450000  0.50000000  0.00000000  1.0
  C  C85  1  0.96740000  0.55623000  0.99993000  1.0
  C  C86  1  0.96740000  0.44377000  0.00007000  1.0
  C  C87  1  0.26521000  0.50000000  1.00000000  1.0
  C  C88  1  0.23263000  0.50226000  0.96477000  1.0
  C  C89  1  0.16742000  0.50221000  0.96484000  1.0
  C  C90  1  0.23263000  0.49775000  0.03523000  1.0
  C  C91  1  0.16742000  0.49780000  0.03517000  1.0
  C  C92  1  0.13452000  0.50000000  0.00000000  1.0
  C  C93  1  0.06550000  0.50000000  0.00000000  1.0
  C  C94  1  0.03260000  0.44377000  0.99993000  1.0
  C  C95  1  0.03260000  0.55623000  0.00007000  1.0
  C  C96  1  0.26467000  0.50000000  0.50000000  1.0
  C  C97  1  0.23236000  0.55560000  0.50580000  1.0
  C  C98  1  0.16720000  0.55559000  0.50557000  1.0
  C  C99  1  0.23236000  0.44440000  0.49421000  1.0
  C  C100  1  0.16720000  0.44440000  0.49443000  1.0
  C  C101  1  0.13436000  0.50000000  0.50000000  1.0
  C  C102  1  0.06547000  0.50000000  0.50000000  1.0
  C  C103  1  0.03258000  0.49956000  0.53519000  1.0
  C  C104  1  0.03258000  0.50044000  0.46481000  1.0
  C  C105  1  0.73533000  0.50000000  0.50000000  1.0
  C  C106  1  0.76764000  0.44440000  0.50580000  1.0
  C  C107  1  0.83279000  0.44440000  0.50557000  1.0
  C  C108  1  0.76763000  0.55560000  0.49420000  1.0
  C  C109  1  0.83279000  0.55559000  0.49443000  1.0
  C  C110  1  0.86563000  0.50000000  0.50000000  1.0
  C  C111  1  0.93453000  0.50000000  0.50000000  1.0
  C  C112  1  0.96741000  0.49956000  0.46481000  1.0
  C  C113  1  0.96741000  0.50044000  0.53519000  1.0
  C  C114  1  0.50000000  0.73480000  0.50000000  1.0
  C  C115  1  0.50226000  0.76737000  0.46476000  1.0
  C  C116  1  0.50221000  0.83258000  0.46483000  1.0
  C  C117  1  0.49775000  0.76737000  0.53523000  1.0
  C  C118  1  0.49780000  0.83258000  0.53516000  1.0
  C  C119  1  0.50000000  0.86548000  0.50000000  1.0
  C  C120  1  0.50000000  0.93450000  0.50000000  1.0
  C  C121  1  0.55624000  0.96740000  0.50007000  1.0
  C  C122  1  0.44377000  0.96740000  0.49993000  1.0
  C  C123  1  0.50000000  0.26520000  0.50000000  1.0
  C  C124  1  0.50226000  0.23263000  0.53523000  1.0
  C  C125  1  0.50221000  0.16742000  0.53516000  1.0
  C  C126  1  0.49775000  0.23263000  0.46477000  1.0
  C  C127  1  0.49780000  0.16742000  0.46483000  1.0
  C  C128  1  0.50000000  0.13451000  0.50000000  1.0
  C  C129  1  0.50000000  0.06550000  0.50000000  1.0
  C  C130  1  0.44377000  0.03260000  0.50007000  1.0
  C  C131  1  0.55624000  0.03260000  0.49993000  1.0
  Cl  Cl132  1  0.37693000  0.27285000  0.01390000  1.0
  Cl  Cl133  1  0.37636000  0.12710000  0.01202000  1.0
  Cl  Cl134  1  0.62308000  0.27285000  0.98610000  1.0
  Cl  Cl135  1  0.62365000  0.12710000  0.98799000  1.0
  Cl  Cl136  1  0.49786000  0.07274000  0.92176000  1.0
  Cl  Cl137  1  0.50215000  0.92725000  0.92176000  1.0
  Cl  Cl138  1  0.50214000  0.07274000  0.07824000  1.0
  Cl  Cl139  1  0.49786000  0.92725000  0.07824000  1.0
  Cl  Cl140  1  0.62364000  0.87289000  0.01202000  1.0
  Cl  Cl141  1  0.62307000  0.72714000  0.01391000  1.0
  Cl  Cl142  1  0.37636000  0.87289000  0.98797000  1.0
  Cl  Cl143  1  0.37693000  0.72714000  0.98610000  1.0
  Cl  Cl144  1  0.72750000  0.49330000  0.92165000  1.0
  Cl  Cl145  1  0.87291000  0.49529000  0.92189000  1.0
  Cl  Cl146  1  0.72751000  0.50670000  0.07835000  1.0
  Cl  Cl147  1  0.87292000  0.50471000  0.07811000  1.0
  Cl  Cl148  1  0.92712000  0.62497000  0.99967000  1.0
  Cl  Cl149  1  0.07288000  0.62497000  0.00033000  1.0
  Cl  Cl150  1  0.92712000  0.37503000  0.00033000  1.0
  Cl  Cl151  1  0.07288000  0.37503000  0.99967000  1.0
  Cl  Cl152  1  0.12709000  0.49529000  0.07811000  1.0
  Cl  Cl153  1  0.27250000  0.49331000  0.07835000  1.0
  Cl  Cl154  1  0.12709000  0.50471000  0.92189000  1.0
  Cl  Cl155  1  0.27250000  0.50670000  0.92165000  1.0
  Cl  Cl156  1  0.27286000  0.37693000  0.48610000  1.0
  Cl  Cl157  1  0.12710000  0.37635000  0.48799000  1.0
  Cl  Cl158  1  0.27285000  0.62307000  0.51390000  1.0
  Cl  Cl159  1  0.12710000  0.62364000  0.51202000  1.0
  Cl  Cl160  1  0.07274000  0.49785000  0.57824000  1.0
  Cl  Cl161  1  0.92725000  0.50214000  0.57824000  1.0
  Cl  Cl162  1  0.07275000  0.50214000  0.42176000  1.0
  Cl  Cl163  1  0.92725000  0.49785000  0.42176000  1.0
  Cl  Cl164  1  0.87289000  0.62364000  0.48797000  1.0
  Cl  Cl165  1  0.72714000  0.62307000  0.48609000  1.0
  Cl  Cl166  1  0.87289000  0.37636000  0.51203000  1.0
  Cl  Cl167  1  0.72714000  0.37693000  0.51391000  1.0
  Cl  Cl168  1  0.49330000  0.72750000  0.57835000  1.0
  Cl  Cl169  1  0.49529000  0.87291000  0.57811000  1.0
  Cl  Cl170  1  0.50671000  0.72750000  0.42164000  1.0
  Cl  Cl171  1  0.50471000  0.87292000  0.42189000  1.0
  Cl  Cl172  1  0.62497000  0.92712000  0.50032000  1.0
  Cl  Cl173  1  0.62497000  0.07288000  0.49967000  1.0
  Cl  Cl174  1  0.37503000  0.92712000  0.49968000  1.0
  Cl  Cl175  1  0.37503000  0.07288000  0.50033000  1.0
  Cl  Cl176  1  0.49529000  0.12709000  0.42189000  1.0
  Cl  Cl177  1  0.49330000  0.27250000  0.42165000  1.0
  Cl  Cl178  1  0.50471000  0.12708000  0.57811000  1.0
  Cl  Cl179  1  0.50671000  0.27250000  0.57835000  1.0
  O  O180  1  0.50000000  0.50000000  0.00000000  1.0
  O  O181  1  0.36120000  0.54746000  0.01463000  1.0
  O  O182  1  0.47525000  0.36032000  0.97073000  1.0
  O  O183  1  0.54452000  0.47140000  0.08761000  1.0
  O  O184  1  0.36120000  0.45255000  0.98537000  1.0
  O  O185  1  0.45547000  0.52860000  0.08761000  1.0
  O  O186  1  0.52475000  0.36032000  0.02927000  1.0
  O  O187  1  0.63880000  0.45255000  0.01463000  1.0
  O  O188  1  0.52474000  0.63967000  0.97074000  1.0
  O  O189  1  0.63880000  0.54745000  0.98537000  1.0
  O  O190  1  0.47525000  0.63968000  0.02928000  1.0
  O  O191  1  0.45548000  0.47140000  0.91239000  1.0
  O  O192  1  0.54453000  0.52860000  0.91239000  1.0
  O  O193  1  0.50000000  0.50000000  0.50000000  1.0
  O  O194  1  0.54745000  0.36120000  0.48537000  1.0
  O  O195  1  0.36032000  0.47525000  0.52927000  1.0
  O  O196  1  0.47139000  0.54452000  0.41239000  1.0
  O  O197  1  0.45255000  0.36119000  0.51463000  1.0
  O  O198  1  0.52860000  0.45547000  0.41239000  1.0
  O  O199  1  0.36032000  0.52475000  0.47073000  1.0
  O  O200  1  0.45255000  0.63880000  0.48536000  1.0
  O  O201  1  0.63967000  0.52474000  0.52928000  1.0
  O  O202  1  0.54746000  0.63881000  0.51463000  1.0
  O  O203  1  0.63967000  0.47526000  0.47073000  1.0
  O  O204  1  0.47141000  0.45548000  0.58761000  1.0
  O  O205  1  0.52860000  0.54453000  0.58761000  1.0
  F  F206  1  0.38153000  0.61923000  0.28940000  1.0
  F  F207  1  0.38077000  0.61847000  0.21061000  1.0
  F  F208  1  0.61846000  0.38076000  0.28939000  1.0
  F  F209  1  0.61924000  0.38154000  0.21060000  1.0
  F  F210  1  0.38154000  0.38077000  0.71060000  1.0
  F  F211  1  0.38076000  0.38154000  0.78939000  1.0
  F  F212  1  0.61847000  0.61924000  0.71061000  1.0
  F  F213  1  0.61924000  0.61847000  0.78939000  1.0
