# generated using pymatgen
data_CuSiH12C24(N2F5)2
_symmetry_space_group_name_H-M   'P 1'
_cell_length_a   7.97424000
_cell_length_b   13.77240000
_cell_length_c   13.77240000
_cell_angle_alpha   90.00700000
_cell_angle_beta   89.98460000
_cell_angle_gamma   89.98540000
_symmetry_Int_Tables_number   1
_chemical_formula_structural   CuSiH12C24(N2F5)2
_chemical_formula_sum   'Cu1 Si1 H12 C24 N4 F10'
_cell_volume   1512.54576795
_cell_formula_units_Z   1
loop_
 _symmetry_equiv_pos_site_id
 _symmetry_equiv_pos_as_xyz
  1  'x, y, z'
loop_
 _atom_site_type_symbol
 _atom_site_label
 _atom_site_symmetry_multiplicity
 _atom_site_fract_x
 _atom_site_fract_y
 _atom_site_fract_z
 _atom_site_occupancy
  Cu  Cu0  1  0.50001000  0.49999000  0.50000000  1.0
  Si  Si1  1  0.00001000  0.50000000  0.49999000  1.0
  H  H2  1  0.24081000  0.65598000  0.50014000  1.0
  H  H3  1  0.22907000  0.83643000  0.50010000  1.0
  H  H4  1  0.76554000  0.65798000  0.49985000  1.0
  H  H5  1  0.23447000  0.34200000  0.50010000  1.0
  H  H6  1  0.75919000  0.34402000  0.49997000  1.0
  H  H7  1  0.77095000  0.16357000  0.50002000  1.0
  H  H8  1  0.24083000  0.50019000  0.65598000  1.0
  H  H9  1  0.22908000  0.50011000  0.83643000  1.0
  H  H10  1  0.76556000  0.49989000  0.65798000  1.0
  H  H11  1  0.23448000  0.50017000  0.34201000  1.0
  H  H12  1  0.75921000  0.49970000  0.34402000  1.0
  H  H13  1  0.77096000  0.49978000  0.16357000  1.0
  C  C14  1  0.35553000  0.69871000  0.50007000  1.0
  C  C15  1  0.34969000  0.79932000  0.50006000  1.0
  C  C16  1  0.49952000  0.85352000  0.50002000  1.0
  C  C17  1  0.64904000  0.79939000  0.49996000  1.0
  C  C18  1  0.64820000  0.69868000  0.49995000  1.0
  C  C19  1  0.50047000  0.95578000  0.50002000  1.0
  C  C20  1  0.49956000  0.04421000  0.50003000  1.0
  C  C21  1  0.50050000  0.14647000  0.50004000  1.0
  C  C22  1  0.35098000  0.20060000  0.50005000  1.0
  C  C23  1  0.35181000  0.30131000  0.50006000  1.0
  C  C24  1  0.64448000  0.30128000  0.50001000  1.0
  C  C25  1  0.65033000  0.20067000  0.50002000  1.0
  C  C26  1  0.35554000  0.50011000  0.69872000  1.0
  C  C27  1  0.34970000  0.50007000  0.79932000  1.0
  C  C28  1  0.49953000  0.50001000  0.85352000  1.0
  C  C29  1  0.64905000  0.49997000  0.79939000  1.0
  C  C30  1  0.64821000  0.49998000  0.69868000  1.0
  C  C31  1  0.50047000  0.49998000  0.95578000  1.0
  C  C32  1  0.49956000  0.49995000  0.04422000  1.0
  C  C33  1  0.50052000  0.49993000  0.14648000  1.0
  C  C34  1  0.35099000  0.50003000  0.20061000  1.0
  C  C35  1  0.35183000  0.50004000  0.30132000  1.0
  C  C36  1  0.64450000  0.49981000  0.30129000  1.0
  C  C37  1  0.65035000  0.49984000  0.20068000  1.0
  N  N38  1  0.50210000  0.64950000  0.50000000  1.0
  N  N39  1  0.49791000  0.35049000  0.50004000  1.0
  N  N40  1  0.50211000  0.50004000  0.64950000  1.0
  N  N41  1  0.49792000  0.49993000  0.35050000  1.0
  F  F42  1  0.21773000  0.49976000  0.49976000  1.0
  F  F43  1  0.78229000  0.50024000  0.50023000  1.0
  F  F44  1  0.00002000  0.58772000  0.41228000  1.0
  F  F45  1  0.00000000  0.41228000  0.58770000  1.0
  F  F46  1  0.99994000  0.58773000  0.58773000  1.0
  F  F47  1  0.00008000  0.41228000  0.41226000  1.0
  F  F48  1  0.79797000  0.84635000  0.49990000  1.0
  F  F49  1  0.20206000  0.15363000  0.50005000  1.0
  F  F50  1  0.79798000  0.49991000  0.84635000  1.0
  F  F51  1  0.20207000  0.50014000  0.15364000  1.0
