# generated using pymatgen
data_LiPH5C2N3O5
_symmetry_space_group_name_H-M   'P 1'
_cell_length_a   6.78519000
_cell_length_b   7.13074000
_cell_length_c   13.66500000
_cell_angle_alpha   91.41210000
_cell_angle_beta   89.99990000
_cell_angle_gamma   89.99990000
_symmetry_Int_Tables_number   1
_chemical_formula_structural   LiPH5C2N3O5
_chemical_formula_sum   'Li4 P4 H20 C8 N12 O20'
_cell_volume   660.95872374
_cell_formula_units_Z   4
loop_
 _symmetry_equiv_pos_site_id
 _symmetry_equiv_pos_as_xyz
  1  'x, y, z'
loop_
 _atom_site_type_symbol
 _atom_site_label
 _atom_site_symmetry_multiplicity
 _atom_site_fract_x
 _atom_site_fract_y
 _atom_site_fract_z
 _atom_site_occupancy
  Li  Li0  1  0.86634000  0.42509000  0.26347000  1.0
  Li  Li1  1  0.36634000  0.07491000  0.23653000  1.0
  Li  Li2  1  0.13366000  0.57491000  0.73653000  1.0
  Li  Li3  1  0.63366000  0.92509000  0.76347000  1.0
  P  P4  1  0.94797000  0.20385000  0.66168000  1.0
  P  P5  1  0.44797000  0.29616000  0.83832000  1.0
  P  P6  1  0.05203000  0.79616000  0.33832000  1.0
  P  P7  1  0.55203000  0.70384000  0.16168000  1.0
  H  H8  1  0.68385000  0.22181000  0.54911000  1.0
  H  H9  1  0.18385000  0.27819000  0.95089000  1.0
  H  H10  1  0.31615000  0.77819000  0.45089000  1.0
  H  H11  1  0.81615000  0.72181000  0.04911000  1.0
  H  H12  1  0.19403000  0.31545000  0.39914000  1.0
  H  H13  1  0.69402000  0.18456000  0.10086000  1.0
  H  H14  1  0.80598000  0.68455000  0.60086000  1.0
  H  H15  1  0.30598000  0.81544000  0.89914000  1.0
  H  H16  1  0.28551000  0.13814000  0.67610000  1.0
  H  H17  1  0.78551000  0.36186000  0.82390000  1.0
  H  H18  1  0.71449000  0.86186000  0.32390000  1.0
  H  H19  1  0.21449000  0.63814000  0.17610000  1.0
  H  H20  1  0.98275000  0.10786000  0.22157000  1.0
  H  H21  1  0.48275000  0.39214000  0.27843000  1.0
  H  H22  1  0.01725000  0.89214000  0.77843000  1.0
  H  H23  1  0.51725000  0.60786000  0.72157000  1.0
  H  H24  1  0.00000000  0.21823000  0.12357000  1.0
  H  H25  1  0.50000000  0.28177000  0.37643000  1.0
  H  H26  1  0.00000000  0.78177000  0.87643000  1.0
  H  H27  1  0.50000000  0.71823000  0.62357000  1.0
  C  C28  1  0.25786000  0.22576000  0.53590000  1.0
  C  C29  1  0.75785000  0.27425000  0.96410000  1.0
  C  C30  1  0.74214000  0.77424000  0.46410000  1.0
  C  C31  1  0.24214000  0.72576000  0.03591000  1.0
  C  C32  1  0.92373000  0.27986000  0.46696000  1.0
  C  C33  1  0.42372000  0.22014000  0.03304000  1.0
  C  C34  1  0.07627000  0.72013000  0.53304000  1.0
  C  C35  1  0.57627000  0.77986000  0.96696000  1.0
  N  N36  1  0.18124000  0.16947000  0.62236000  1.0
  N  N37  1  0.68124000  0.33053000  0.87764000  1.0
  N  N38  1  0.81876000  0.83053000  0.37764000  1.0
  N  N39  1  0.31876000  0.66947000  0.12236000  1.0
  N  N40  1  0.12717000  0.28480000  0.46484000  1.0
  N  N41  1  0.62716000  0.21521000  0.03516000  1.0
  N  N42  1  0.87284000  0.71520000  0.53516000  1.0
  N  N43  1  0.37283000  0.78479000  0.96484000  1.0
  N  N44  1  0.83692000  0.22587000  0.55179000  1.0
  N  N45  1  0.33691000  0.27413000  0.94820000  1.0
  N  N46  1  0.16309000  0.77413000  0.44820000  1.0
  N  N47  1  0.66308000  0.72587000  0.05180000  1.0
  O  O48  1  0.43769000  0.22398000  0.51786000  1.0
  O  O49  1  0.93769000  0.27602000  0.98214000  1.0
  O  O50  1  0.56231000  0.77602000  0.48214000  1.0
  O  O51  1  0.06231000  0.72398000  0.01787000  1.0
  O  O52  1  0.82587000  0.32260000  0.39359000  1.0
  O  O53  1  0.32587000  0.17740000  0.10641000  1.0
  O  O54  1  0.17413000  0.67740000  0.60641000  1.0
  O  O55  1  0.67413000  0.82260000  0.89359000  1.0
  O  O56  1  0.87229000  0.03130000  0.71045000  1.0
  O  O57  1  0.37230000  0.46870000  0.78955000  1.0
  O  O58  1  0.12770000  0.96870000  0.28955000  1.0
  O  O59  1  0.62770000  0.53130000  0.21045000  1.0
  O  O60  1  0.93391000  0.38385000  0.72221000  1.0
  O  O61  1  0.43391000  0.11615000  0.77779000  1.0
  O  O62  1  0.06609000  0.61616000  0.27779000  1.0
  O  O63  1  0.56609000  0.88384000  0.22221000  1.0
  O  O64  1  0.91790000  0.20603000  0.18238000  1.0
  O  O65  1  0.41791000  0.29397000  0.31762000  1.0
  O  O66  1  0.08210000  0.79397000  0.81762000  1.0
  O  O67  1  0.58210000  0.70603000  0.68238000  1.0
