# generated using pymatgen
data_Zn4H12C48Br12O13
_symmetry_space_group_name_H-M   'P 1'
_cell_length_a   28.34330004
_cell_length_b   28.34420000
_cell_length_c   28.34350000
_cell_angle_alpha   120.00750000
_cell_angle_beta   120.00485550
_cell_angle_gamma   59.99684880
_symmetry_Int_Tables_number   1
_chemical_formula_structural   Zn4H12C48Br12O13
_chemical_formula_sum   'Zn8 H24 C96 Br24 O26'
_cell_volume   16099.12219120
_cell_formula_units_Z   2
loop_
 _symmetry_equiv_pos_site_id
 _symmetry_equiv_pos_as_xyz
  1  'x, y, z'
loop_
 _atom_site_type_symbol
 _atom_site_label
 _atom_site_symmetry_multiplicity
 _atom_site_fract_x
 _atom_site_fract_y
 _atom_site_fract_z
 _atom_site_occupancy
  Zn  Zn0  1  0.02830000  0.02833000  0.47170000  1.0
  Zn  Zn1  1  0.91505000  0.02836000  0.47165000  1.0
  Zn  Zn2  1  0.02824000  0.02834000  0.58487000  1.0
  Zn  Zn3  1  0.02826000  0.91516000  0.47170000  1.0
  Zn  Zn4  1  0.47177000  0.47167000  0.02839000  1.0
  Zn  Zn5  1  0.47168000  0.47169000  0.91516000  1.0
  Zn  Zn6  1  0.58490000  0.47170000  0.02836000  1.0
  Zn  Zn7  1  0.47171000  0.58489000  0.02838000  1.0
  H  H8  1  0.30490000  0.77103000  0.19517000  1.0
  H  H9  1  0.30485000  0.61909000  0.19514000  1.0
  H  H10  1  0.19515000  0.88081000  0.30491000  1.0
  H  H11  1  0.19514000  0.72888000  0.30496000  1.0
  H  H12  1  0.61912000  0.30491000  0.72896000  1.0
  H  H13  1  0.77112000  0.30495000  0.88090000  1.0
  H  H14  1  0.72884000  0.19520000  0.61915000  1.0
  H  H15  1  0.88084000  0.19517000  0.77109000  1.0
  H  H16  1  0.30499000  0.30475000  0.72904000  1.0
  H  H17  1  0.30503000  0.30474000  0.88102000  1.0
  H  H18  1  0.19530000  0.19500000  0.61928000  1.0
  H  H19  1  0.19522000  0.19498000  0.77118000  1.0
  H  H20  1  0.61914000  0.77108000  0.19505000  1.0
  H  H21  1  0.77114000  0.61913000  0.19509000  1.0
  H  H22  1  0.72889000  0.88084000  0.30492000  1.0
  H  H23  1  0.88089000  0.72891000  0.30493000  1.0
  H  H24  1  0.77124000  0.30485000  0.19509000  1.0
  H  H25  1  0.61934000  0.30481000  0.19517000  1.0
  H  H26  1  0.88103000  0.19512000  0.30490000  1.0
  H  H27  1  0.72900000  0.19516000  0.30480000  1.0
  H  H28  1  0.30503000  0.61918000  0.72896000  1.0
  H  H29  1  0.30501000  0.77115000  0.88094000  1.0
  H  H30  1  0.19513000  0.72897000  0.61918000  1.0
  H  H31  1  0.19514000  0.88095000  0.77114000  1.0
  C  C32  1  0.90964000  0.09045000  0.40957000  1.0
  C  C33  1  0.90951000  0.09048000  0.59036000  1.0
  C  C34  1  0.09040000  0.09043000  0.59044000  1.0
  C  C35  1  0.09037000  0.90966000  0.59044000  1.0
  C  C36  1  0.09038000  0.90960000  0.40958000  1.0
  C  C37  1  0.90956000  0.90963000  0.40954000  1.0
  C  C38  1  0.40967000  0.40952000  0.90974000  1.0
  C  C39  1  0.59045000  0.40955000  0.90968000  1.0
  C  C40  1  0.59049000  0.40955000  0.09045000  1.0
  C  C41  1  0.59045000  0.59037000  0.09052000  1.0
  C  C42  1  0.40968000  0.59032000  0.09053000  1.0
  C  C43  1  0.40960000  0.59045000  0.90967000  1.0
  C  C44  1  0.37209000  0.62788000  0.12805000  1.0
  C  C45  1  0.35305000  0.68941000  0.14706000  1.0
  C  C46  1  0.31832000  0.72425000  0.18176000  1.0
  C  C47  1  0.30047000  0.69948000  0.19959000  1.0
  C  C48  1  0.31830000  0.63902000  0.18174000  1.0
  C  C49  1  0.35302000  0.60442000  0.14705000  1.0
  C  C50  1  0.26522000  0.73474000  0.23483000  1.0
  C  C51  1  0.23480000  0.76516000  0.26526000  1.0
  C  C52  1  0.19956000  0.80042000  0.30051000  1.0
  C  C53  1  0.18172000  0.86088000  0.31833000  1.0
  C  C54  1  0.14700000  0.89549000  0.35302000  1.0
  C  C55  1  0.12795000  0.87203000  0.37205000  1.0
  C  C56  1  0.14700000  0.81049000  0.35305000  1.0
  C  C57  1  0.18172000  0.77566000  0.31835000  1.0
  C  C58  1  0.62799000  0.37203000  0.87213000  1.0
  C  C59  1  0.60450000  0.35301000  0.81059000  1.0
  C  C60  1  0.63908000  0.31833000  0.77575000  1.0
  C  C61  1  0.69954000  0.30050000  0.80050000  1.0
  C  C62  1  0.72434000  0.31834000  0.86096000  1.0
  C  C63  1  0.68954000  0.35302000  0.89558000  1.0
  C  C64  1  0.73477000  0.26527000  0.76525000  1.0
  C  C65  1  0.76519000  0.23484000  0.73481000  1.0
  C  C66  1  0.80042000  0.19960000  0.69954000  1.0
  C  C67  1  0.77562000  0.18177000  0.63908000  1.0
  C  C68  1  0.81043000  0.14707000  0.60447000  1.0
  C  C69  1  0.87197000  0.12803000  0.62792000  1.0
  C  C70  1  0.89546000  0.14706000  0.68946000  1.0
  C  C71  1  0.86088000  0.18176000  0.72430000  1.0
  C  C72  1  0.37215000  0.37194000  0.87220000  1.0
  C  C73  1  0.35312000  0.35289000  0.81065000  1.0
  C  C74  1  0.31841000  0.31818000  0.77583000  1.0
  C  C75  1  0.30058000  0.30034000  0.80061000  1.0
  C  C76  1  0.31843000  0.31817000  0.86107000  1.0
  C  C77  1  0.35314000  0.35288000  0.89567000  1.0
  C  C78  1  0.26535000  0.26508000  0.76537000  1.0
  C  C79  1  0.23492000  0.23464000  0.73492000  1.0
  C  C80  1  0.19966000  0.19942000  0.69965000  1.0
  C  C81  1  0.18184000  0.18159000  0.63919000  1.0
  C  C82  1  0.14710000  0.14691000  0.60457000  1.0
  C  C83  1  0.12801000  0.12791000  0.62801000  1.0
  C  C84  1  0.14706000  0.14690000  0.68955000  1.0
  C  C85  1  0.18180000  0.18158000  0.72440000  1.0
  C  C86  1  0.62800000  0.62792000  0.12800000  1.0
  C  C87  1  0.60452000  0.68945000  0.14698000  1.0
  C  C88  1  0.63910000  0.72429000  0.18166000  1.0
  C  C89  1  0.69956000  0.69953000  0.19952000  1.0
  C  C90  1  0.72435000  0.63907000  0.18169000  1.0
  C  C91  1  0.68954000  0.60446000  0.14700000  1.0
  C  C92  1  0.73480000  0.73478000  0.23477000  1.0
  C  C93  1  0.76524000  0.76519000  0.26523000  1.0
  C  C94  1  0.80047000  0.80045000  0.30049000  1.0
  C  C95  1  0.77568000  0.86091000  0.31834000  1.0
  C  C96  1  0.81048000  0.89552000  0.35303000  1.0
  C  C97  1  0.87202000  0.87207000  0.37204000  1.0
  C  C98  1  0.89552000  0.81052000  0.35303000  1.0
  C  C99  1  0.86094000  0.77568000  0.31834000  1.0
  C  C100  1  0.62807000  0.37200000  0.12798000  1.0
  C  C101  1  0.68961000  0.35297000  0.14698000  1.0
  C  C102  1  0.72445000  0.31827000  0.18169000  1.0
  C  C103  1  0.69970000  0.30043000  0.19954000  1.0
  C  C104  1  0.63925000  0.31825000  0.18173000  1.0
  C  C105  1  0.60462000  0.35296000  0.14702000  1.0
  C  C106  1  0.73497000  0.26521000  0.23478000  1.0
  C  C107  1  0.76541000  0.23478000  0.26521000  1.0
  C  C108  1  0.80061000  0.19955000  0.30044000  1.0
  C  C109  1  0.86106000  0.18171000  0.31831000  1.0
  C  C110  1  0.89563000  0.14701000  0.35301000  1.0
  C  C111  1  0.87213000  0.12799000  0.37202000  1.0
  C  C112  1  0.81058000  0.14702000  0.35296000  1.0
  C  C113  1  0.77579000  0.18173000  0.31825000  1.0
  C  C114  1  0.37212000  0.62800000  0.87211000  1.0
  C  C115  1  0.35312000  0.60454000  0.81057000  1.0
  C  C116  1  0.31842000  0.63914000  0.77575000  1.0
  C  C117  1  0.30056000  0.69960000  0.80052000  1.0
  C  C118  1  0.31841000  0.72437000  0.86098000  1.0
  C  C119  1  0.35311000  0.68954000  0.89557000  1.0
  C  C120  1  0.26530000  0.73485000  0.76528000  1.0
  C  C121  1  0.23484000  0.76529000  0.73485000  1.0
  C  C122  1  0.19957000  0.80053000  0.69960000  1.0
  C  C123  1  0.18171000  0.77575000  0.63913000  1.0
  C  C124  1  0.14698000  0.81057000  0.60453000  1.0
  C  C125  1  0.12794000  0.87212000  0.62800000  1.0
  C  C126  1  0.14699000  0.89558000  0.68954000  1.0
  C  C127  1  0.18171000  0.86100000  0.72436000  1.0
  Br  Br128  1  0.37108000  0.73372000  0.12900000  1.0
  Br  Br129  1  0.37102000  0.52403000  0.12897000  1.0
  Br  Br130  1  0.12896000  0.97589000  0.37105000  1.0
  Br  Br131  1  0.12897000  0.76620000  0.37112000  1.0
  Br  Br132  1  0.52409000  0.37104000  0.76628000  1.0
  Br  Br133  1  0.73386000  0.37108000  0.97597000  1.0
  Br  Br134  1  0.76610000  0.12904000  0.52408000  1.0
  Br  Br135  1  0.97587000  0.12902000  0.73378000  1.0
  Br  Br136  1  0.37116000  0.37091000  0.76632000  1.0
  Br  Br137  1  0.37122000  0.37089000  0.97606000  1.0
  Br  Br138  1  0.12913000  0.12885000  0.52418000  1.0
  Br  Br139  1  0.12900000  0.12884000  0.73383000  1.0
  Br  Br140  1  0.52411000  0.73377000  0.12888000  1.0
  Br  Br141  1  0.73387000  0.52407000  0.12894000  1.0
  Br  Br142  1  0.76614000  0.97591000  0.37110000  1.0
  Br  Br143  1  0.97592000  0.76622000  0.37109000  1.0
  Br  Br144  1  0.73388000  0.37102000  0.12890000  1.0
  Br  Br145  1  0.52423000  0.37098000  0.12901000  1.0
  Br  Br146  1  0.97604000  0.12896000  0.37111000  1.0
  Br  Br147  1  0.76623000  0.12899000  0.37095000  1.0
  Br  Br148  1  0.37124000  0.52414000  0.76624000  1.0
  Br  Br149  1  0.37119000  0.73385000  0.97598000  1.0
  Br  Br150  1  0.12892000  0.76623000  0.52412000  1.0
  Br  Br151  1  0.12893000  0.97598000  0.73384000  1.0
  O  O152  1  0.99996000  0.00004000  0.49998000  1.0
  O  O153  1  0.96410000  0.07580000  0.42419000  1.0
  O  O154  1  0.88430000  0.07588000  0.53590000  1.0
  O  O155  1  0.07573000  0.07583000  0.61562000  1.0
  O  O156  1  0.88441000  0.07586000  0.42419000  1.0
  O  O157  1  0.07577000  0.07583000  0.53598000  1.0
  O  O158  1  0.96396000  0.07585000  0.61557000  1.0
  O  O159  1  0.07572000  0.96412000  0.61564000  1.0
  O  O160  1  0.07571000  0.88441000  0.42417000  1.0
  O  O161  1  0.07576000  0.88445000  0.53598000  1.0
  O  O162  1  0.07578000  0.96405000  0.42421000  1.0
  O  O163  1  0.88435000  0.96408000  0.42408000  1.0
  O  O164  1  0.96401000  0.88443000  0.42420000  1.0
  O  O165  1  0.50000000  0.49999000  0.00005000  1.0
  O  O166  1  0.42431000  0.42413000  0.96419000  1.0
  O  O167  1  0.53599000  0.42418000  0.88449000  1.0
  O  O168  1  0.61569000  0.42419000  0.07584000  1.0
  O  O169  1  0.42427000  0.42415000  0.88453000  1.0
  O  O170  1  0.53604000  0.42416000  0.07583000  1.0
  O  O171  1  0.61567000  0.42413000  0.96414000  1.0
  O  O172  1  0.61567000  0.53592000  0.07592000  1.0
  O  O173  1  0.42428000  0.61553000  0.07589000  1.0
  O  O174  1  0.53600000  0.61557000  0.07597000  1.0
  O  O175  1  0.42437000  0.53588000  0.07599000  1.0
  O  O176  1  0.42417000  0.53598000  0.88446000  1.0
  O  O177  1  0.42422000  0.61565000  0.96413000  1.0
