# generated using pymatgen
data_H6PbC6O7
_symmetry_space_group_name_H-M   'P 1'
_cell_length_a   6.36473000
_cell_length_b   6.61276000
_cell_length_c   11.89440000
_cell_angle_alpha   96.23960000
_cell_angle_beta   101.67800000
_cell_angle_gamma   103.48900000
_symmetry_Int_Tables_number   1
_chemical_formula_structural   H6PbC6O7
_chemical_formula_sum   'H12 Pb2 C12 O14'
_cell_volume   470.29842740
_cell_formula_units_Z   2
loop_
 _symmetry_equiv_pos_site_id
 _symmetry_equiv_pos_as_xyz
  1  'x, y, z'
loop_
 _atom_site_type_symbol
 _atom_site_label
 _atom_site_symmetry_multiplicity
 _atom_site_fract_x
 _atom_site_fract_y
 _atom_site_fract_z
 _atom_site_occupancy
  H  H0  1  0.27541000  0.84078000  0.31796000  1.0
  H  H1  1  0.72458000  0.15925000  0.68202000  1.0
  H  H2  1  0.10517000  0.98437000  0.37589000  1.0
  H  H3  1  0.89481000  0.01564000  0.62411000  1.0
  H  H4  1  0.70416000  0.83806000  0.33421000  1.0
  H  H5  1  0.29588000  0.16202000  0.66580000  1.0
  H  H6  1  0.75647000  0.65423000  0.42781000  1.0
  H  H7  1  0.24352000  0.34577000  0.57220000  1.0
  H  H8  1  0.92274000  0.38212000  0.34735000  1.0
  H  H9  1  0.07727000  0.61789000  0.65267000  1.0
  H  H10  1  0.45991000  0.70143000  0.58845000  1.0
  H  H11  1  0.54008000  0.29858000  0.41152000  1.0
  Pb  Pb12  1  0.07256000  0.29345000  0.11217000  1.0
  Pb  Pb13  1  0.92748000  0.70654000  0.88784000  1.0
  C  C14  1  0.51258000  0.52164000  0.26695000  1.0
  C  C15  1  0.48744000  0.47832000  0.73303000  1.0
  C  C16  1  0.72413000  0.67830000  0.33699000  1.0
  C  C17  1  0.27581000  0.32171000  0.66301000  1.0
  C  C18  1  0.92889000  0.66575000  0.28895000  1.0
  C  C19  1  0.07107000  0.33419000  0.71106000  1.0
  C  C20  1  0.89560000  0.72162000  0.16438000  1.0
  C  C21  1  0.10439000  0.27837000  0.83562000  1.0
  C  C22  1  0.14155000  0.82998000  0.36407000  1.0
  C  C23  1  0.85846000  0.17001000  0.63593000  1.0
  C  C24  1  0.21505000  0.77299000  0.48248000  1.0
  C  C25  1  0.78497000  0.22700000  0.51751000  1.0
  O  O26  1  0.40428000  0.57554000  0.17773000  1.0
  O  O27  1  0.59571000  0.42456000  0.82226000  1.0
  O  O28  1  0.44570000  0.34202000  0.29707000  1.0
  O  O29  1  0.55424000  0.65807000  0.70296000  1.0
  O  O30  1  0.96127000  0.45850000  0.28202000  1.0
  O  O31  1  0.03873000  0.54145000  0.71798000  1.0
  O  O32  1  0.90273000  0.58069000  0.08179000  1.0
  O  O33  1  0.09727000  0.41924000  0.91822000  1.0
  O  O34  1  0.86755000  0.89811000  0.14955000  1.0
  O  O35  1  0.13251000  0.10188000  0.85045000  1.0
  O  O36  1  0.41293000  0.73779000  0.50374000  1.0
  O  O37  1  0.58707000  0.26215000  0.49626000  1.0
  O  O38  1  0.09323000  0.75924000  0.55289000  1.0
  O  O39  1  0.90679000  0.24074000  0.44709000  1.0
