# generated using pymatgen
data_MnH4C8O5
_symmetry_space_group_name_H-M   'P 1'
_cell_length_a   19.58989101
_cell_length_b   19.59000000
_cell_length_c   19.59000000
_cell_angle_alpha   70.52900000
_cell_angle_beta   70.52822539
_cell_angle_gamma   109.47077460
_symmetry_Int_Tables_number   1
_chemical_formula_structural   MnH4C8O5
_chemical_formula_sum   'Mn24 H96 C192 O120'
_cell_volume   5787.34809703
_cell_formula_units_Z   24
loop_
 _symmetry_equiv_pos_site_id
 _symmetry_equiv_pos_as_xyz
  1  'x, y, z'
loop_
 _atom_site_type_symbol
 _atom_site_label
 _atom_site_symmetry_multiplicity
 _atom_site_fract_x
 _atom_site_fract_y
 _atom_site_fract_z
 _atom_site_occupancy
  Mn  Mn0  1  0.86175000  0.30660000  0.07170000  1.0
  Mn  Mn1  1  0.30660000  0.92829000  0.13826000  1.0
  Mn  Mn2  1  0.92830000  0.86175000  0.69339000  1.0
  Mn  Mn3  1  0.55515000  0.12170000  0.80660000  1.0
  Mn  Mn4  1  0.43345000  0.57170000  0.62170000  1.0
  Mn  Mn5  1  0.57170000  0.37831000  0.56655000  1.0
  Mn  Mn6  1  0.06655000  0.94486000  0.36175000  1.0
  Mn  Mn7  1  0.19340000  0.55515000  0.87830000  1.0
  Mn  Mn8  1  0.94485000  0.63825000  0.93345000  1.0
  Mn  Mn9  1  0.37831000  0.43345000  0.42830000  1.0
  Mn  Mn10  1  0.12169000  0.19339000  0.44486000  1.0
  Mn  Mn11  1  0.63825000  0.06655000  0.05514000  1.0
  Mn  Mn12  1  0.13825000  0.69340000  0.92830000  1.0
  Mn  Mn13  1  0.69340000  0.07170000  0.86175000  1.0
  Mn  Mn14  1  0.07170000  0.13825000  0.30661000  1.0
  Mn  Mn15  1  0.44485000  0.87830000  0.19340000  1.0
  Mn  Mn16  1  0.56655000  0.42830000  0.37831000  1.0
  Mn  Mn17  1  0.42830000  0.62169000  0.43345000  1.0
  Mn  Mn18  1  0.93345000  0.05514000  0.63825000  1.0
  Mn  Mn19  1  0.80661000  0.44486000  0.12169000  1.0
  Mn  Mn20  1  0.05515000  0.36175000  0.06655000  1.0
  Mn  Mn21  1  0.62169000  0.56655000  0.57171000  1.0
  Mn  Mn22  1  0.87830000  0.80660000  0.55515000  1.0
  Mn  Mn23  1  0.36175000  0.93345000  0.94486000  1.0
  H  H24  1  0.92098000  0.28404000  0.73676000  1.0
  H  H25  1  0.28403000  0.26323000  0.07903000  1.0
  H  H26  1  0.26324000  0.92098000  0.71597000  1.0
  H  H27  1  0.63694000  0.47920000  0.78403000  1.0
  H  H28  1  0.15774000  0.23677000  0.97921000  1.0
  H  H29  1  0.23676000  0.02080000  0.84226000  1.0
  H  H30  1  0.34227000  0.86306000  0.42097000  1.0
  H  H31  1  0.21597000  0.63694000  0.52079000  1.0
  H  H32  1  0.86306000  0.57903000  0.65773000  1.0
  H  H33  1  0.02079000  0.15774000  0.76324000  1.0
  H  H34  1  0.47921000  0.21597000  0.36306000  1.0
  H  H35  1  0.57903000  0.34227000  0.13694000  1.0
  H  H36  1  0.07903000  0.71598000  0.26323000  1.0
  H  H37  1  0.71597000  0.73677000  0.92097000  1.0
  H  H38  1  0.73676000  0.07902000  0.28403000  1.0
  H  H39  1  0.36305000  0.52079000  0.21597000  1.0
  H  H40  1  0.84226000  0.76323000  0.02079000  1.0
  H  H41  1  0.76324000  0.97920000  0.15774000  1.0
  H  H42  1  0.65773000  0.13694000  0.57903000  1.0
  H  H43  1  0.78403000  0.36305000  0.47921000  1.0
  H  H44  1  0.13694000  0.42097000  0.34227000  1.0
  H  H45  1  0.97921000  0.84226000  0.23676000  1.0
  H  H46  1  0.52079000  0.78403000  0.63694000  1.0
  H  H47  1  0.42097000  0.65773000  0.86306000  1.0
  H  H48  1  0.10563000  0.46903000  0.74806000  1.0
  H  H49  1  0.46903000  0.25194000  0.89438000  1.0
  H  H50  1  0.25194000  0.10562000  0.53097000  1.0
  H  H51  1  0.63660000  0.28291000  0.96903000  1.0
  H  H52  1  0.35368000  0.24806000  0.78292000  1.0
  H  H53  1  0.24806000  0.21709000  0.64631000  1.0
  H  H54  1  0.14631000  0.86339000  0.60563000  1.0
  H  H55  1  0.03097000  0.63660000  0.71709000  1.0
  H  H56  1  0.86339000  0.39437000  0.85369000  1.0
  H  H57  1  0.21709000  0.35369000  0.75193000  1.0
  H  H58  1  0.28291000  0.03097000  0.36341000  1.0
  H  H59  1  0.39438000  0.14632000  0.13659000  1.0
  H  H60  1  0.89437000  0.53097000  0.25194000  1.0
  H  H61  1  0.53097000  0.74806000  0.10563000  1.0
  H  H62  1  0.74806000  0.89438000  0.46903000  1.0
  H  H63  1  0.36340000  0.71709000  0.03097000  1.0
  H  H64  1  0.64632000  0.75194000  0.21709000  1.0
  H  H65  1  0.75194000  0.78291000  0.35369000  1.0
  H  H66  1  0.85368000  0.13660000  0.39438000  1.0
  H  H67  1  0.96903000  0.36340000  0.28291000  1.0
  H  H68  1  0.13660000  0.60562000  0.14631000  1.0
  H  H69  1  0.78291000  0.64631000  0.24807000  1.0
  H  H70  1  0.71708000  0.96902000  0.63660000  1.0
  H  H71  1  0.60562000  0.85368000  0.86341000  1.0
  H  H72  1  0.05649000  0.41915000  0.66294000  1.0
  H  H73  1  0.41915000  0.33706000  0.94352000  1.0
  H  H74  1  0.33707000  0.05649000  0.58084000  1.0
  H  H75  1  0.63734000  0.41792000  0.91915000  1.0
  H  H76  1  0.21942000  0.16293000  0.91791000  1.0
  H  H77  1  0.16293000  0.08209000  0.78058000  1.0
  H  H78  1  0.28058000  0.86266000  0.55649000  1.0
  H  H79  1  0.08084000  0.63733000  0.58209000  1.0
  H  H80  1  0.86266000  0.44351000  0.71942000  1.0
  H  H81  1  0.08209000  0.21943000  0.83706000  1.0
  H  H82  1  0.41792000  0.08085000  0.36266000  1.0
  H  H83  1  0.44351000  0.28058000  0.13733000  1.0
  H  H84  1  0.94351000  0.58085000  0.33707000  1.0
  H  H85  1  0.58085000  0.66294000  0.05648000  1.0
  H  H86  1  0.66293000  0.94351000  0.41916000  1.0
  H  H87  1  0.36266000  0.58209000  0.08085000  1.0
  H  H88  1  0.78058000  0.83707000  0.08209000  1.0
  H  H89  1  0.83707000  0.91791000  0.21942000  1.0
  H  H90  1  0.71942000  0.13734000  0.44351000  1.0
  H  H91  1  0.91916000  0.36267000  0.41791000  1.0
  H  H92  1  0.13734000  0.55650000  0.28057000  1.0
  H  H93  1  0.91791000  0.78057000  0.16294000  1.0
  H  H94  1  0.58208000  0.91915000  0.63734000  1.0
  H  H95  1  0.55649000  0.71942000  0.86267000  1.0
  H  H96  1  0.82786000  0.19341000  0.00273000  1.0
  H  H97  1  0.19341000  0.99727000  0.17214000  1.0
  H  H98  1  0.99726000  0.82785000  0.80659000  1.0
  H  H99  1  0.63445000  0.30386000  0.69340000  1.0
  H  H100  1  0.33059000  0.50274000  0.80386000  1.0
  H  H101  1  0.50274000  0.19614000  0.66941000  1.0
  H  H102  1  0.16941000  0.86555000  0.32785000  1.0
  H  H103  1  0.30660000  0.63445000  0.69614000  1.0
  H  H104  1  0.86555000  0.67214000  0.83059000  1.0
  H  H105  1  0.19614000  0.33059000  0.49727000  1.0
  H  H106  1  0.30386000  0.30659000  0.36555000  1.0
  H  H107  1  0.67215000  0.16941000  0.13445000  1.0
  H  H108  1  0.17214000  0.80659000  0.99727000  1.0
  H  H109  1  0.80660000  0.00274000  0.82785000  1.0
  H  H110  1  0.00274000  0.17215000  0.19341000  1.0
  H  H111  1  0.36555000  0.69614000  0.30660000  1.0
  H  H112  1  0.66941000  0.49726000  0.19614000  1.0
  H  H113  1  0.49726000  0.80385000  0.33059000  1.0
  H  H114  1  0.83059000  0.13445000  0.67214000  1.0
  H  H115  1  0.69340000  0.36554000  0.30386000  1.0
  H  H116  1  0.13445000  0.32785000  0.16941000  1.0
  H  H117  1  0.80386000  0.66941000  0.50274000  1.0
  H  H118  1  0.69614000  0.69340000  0.63445000  1.0
  H  H119  1  0.32785000  0.83059000  0.86555000  1.0
  C  C120  1  0.92613000  0.29060000  0.90703000  1.0
  C  C121  1  0.29061000  0.09298000  0.07386000  1.0
  C  C122  1  0.09297000  0.92613000  0.70940000  1.0
  C  C123  1  0.63553000  0.30237000  0.79060000  1.0
  C  C124  1  0.33316000  0.40703000  0.80237000  1.0
  C  C125  1  0.40703000  0.19763000  0.66684000  1.0
  C  C126  1  0.16684000  0.86447000  0.42613000  1.0
  C  C127  1  0.20940000  0.63553000  0.69763000  1.0
  C  C128  1  0.86447000  0.57387000  0.83316000  1.0
  C  C129  1  0.19762000  0.33315000  0.59298000  1.0
  C  C130  1  0.30237000  0.20939000  0.36448000  1.0
  C  C131  1  0.57387000  0.16684000  0.13553000  1.0
  C  C132  1  0.07387000  0.70940000  0.09297000  1.0
  C  C133  1  0.70940000  0.90703000  0.92613000  1.0
  C  C134  1  0.90703000  0.07387000  0.29060000  1.0
  C  C135  1  0.36447000  0.69763000  0.20940000  1.0
  C  C136  1  0.66684000  0.59297000  0.19763000  1.0
  C  C137  1  0.59297000  0.80237000  0.33316000  1.0
  C  C138  1  0.83316000  0.13553000  0.57386000  1.0
  C  C139  1  0.79060000  0.36447000  0.30237000  1.0
  C  C140  1  0.13553000  0.42613000  0.16684000  1.0
  C  C141  1  0.80237000  0.66684000  0.40703000  1.0
  C  C142  1  0.69762000  0.79059000  0.63554000  1.0
  C  C143  1  0.42613000  0.83316000  0.86447000  1.0
  C  C144  1  0.03781000  0.40262000  0.91017000  1.0
  C  C145  1  0.40262000  0.08983000  0.96219000  1.0
  C  C146  1  0.08983000  0.03781000  0.59738000  1.0
  C  C147  1  0.63519000  0.18721000  0.90262000  1.0
  C  C148  1  0.44797000  0.41016000  0.68722000  1.0
  C  C149  1  0.41017000  0.31279000  0.55202000  1.0
  C  C150  1  0.05202000  0.86481000  0.53781000  1.0
  C  C151  1  0.09738000  0.63519000  0.81279000  1.0
  C  C152  1  0.86481000  0.46219000  0.94798000  1.0
  C  C153  1  0.31279000  0.44798000  0.58983000  1.0
  C  C154  1  0.18721000  0.09737000  0.36482000  1.0
  C  C155  1  0.46219000  0.05202000  0.13519000  1.0
  C  C156  1  0.96218000  0.59737000  0.08984000  1.0
  C  C157  1  0.59738000  0.91017000  0.03781000  1.0
  C  C158  1  0.91017000  0.96219000  0.40262000  1.0
  C  C159  1  0.36481000  0.81279000  0.09738000  1.0
  C  C160  1  0.55203000  0.58984000  0.31279000  1.0
  C  C161  1  0.58983000  0.68720000  0.44798000  1.0
  C  C162  1  0.94797000  0.13518000  0.46219000  1.0
  C  C163  1  0.90263000  0.36482000  0.18721000  1.0
  C  C164  1  0.13519000  0.53781000  0.05202000  1.0
  C  C165  1  0.68721000  0.55202000  0.41017000  1.0
  C  C166  1  0.81279000  0.90263000  0.63518000  1.0
  C  C167  1  0.53781000  0.94798000  0.86481000  1.0
  C  C168  1  0.00211000  0.36644000  0.86618000  1.0
  C  C169  1  0.36643000  0.13381000  0.99790000  1.0
  C  C170  1  0.13382000  0.00211000  0.63356000  1.0
  C  C171  1  0.63568000  0.26739000  0.86642000  1.0
  C  C172  1  0.36829000  0.36618000  0.76738000  1.0
  C  C173  1  0.36619000  0.23262000  0.63170000  1.0
  C  C174  1  0.13171000  0.86433000  0.50210000  1.0
  C  C175  1  0.13357000  0.63568000  0.73262000  1.0
  C  C176  1  0.86432000  0.49789000  0.86830000  1.0
  C  C177  1  0.23262000  0.36829000  0.63381000  1.0
  C  C178  1  0.26738000  0.13356000  0.36433000  1.0
  C  C179  1  0.49789000  0.13170000  0.13568000  1.0
  C  C180  1  0.99789000  0.63356000  0.13382000  1.0
  C  C181  1  0.63357000  0.86619000  0.00210000  1.0
  C  C182  1  0.86618000  0.99789000  0.36644000  1.0
  C  C183  1  0.36432000  0.73261000  0.13357000  1.0
  C  C184  1  0.63171000  0.63381000  0.23262000  1.0
  C  C185  1  0.63381000  0.76737000  0.36830000  1.0
  C  C186  1  0.86829000  0.13568000  0.49789000  1.0
  C  C187  1  0.86644000  0.36433000  0.26738000  1.0
  C  C188  1  0.13568000  0.50211000  0.13170000  1.0
  C  C189  1  0.76738000  0.63171000  0.36619000  1.0
  C  C190  1  0.73262000  0.86644000  0.63567000  1.0
  C  C191  1  0.50211000  0.86830000  0.86432000  1.0
  C  C192  1  0.89777000  0.26171000  0.85889000  1.0
  C  C193  1  0.26171000  0.14110000  0.10223000  1.0
  C  C194  1  0.14111000  0.89778000  0.73828000  1.0
  C  C195  1  0.63606000  0.37939000  0.76171000  1.0
  C  C196  1  0.25667000  0.35890000  0.87939000  1.0
  C  C197  1  0.35889000  0.12060000  0.74334000  1.0
  C  C198  1  0.24334000  0.86394000  0.39777000  1.0
  C  C199  1  0.23829000  0.63606000  0.62060000  1.0
  C  C200  1  0.86394000  0.60223000  0.75666000  1.0
  C  C201  1  0.12060000  0.25666000  0.64111000  1.0
  C  C202  1  0.37940000  0.23829000  0.36394000  1.0
  C  C203  1  0.60223000  0.24334000  0.13606000  1.0
  C  C204  1  0.10223000  0.73829000  0.14110000  1.0
  C  C205  1  0.73829000  0.85890000  0.89777000  1.0
  C  C206  1  0.85889000  0.10222000  0.26172000  1.0
  C  C207  1  0.36394000  0.62061000  0.23829000  1.0
  C  C208  1  0.74333000  0.64110000  0.12061000  1.0
  C  C209  1  0.64111000  0.87939000  0.25666000  1.0
  C  C210  1  0.75666000  0.13606000  0.60223000  1.0
  C  C211  1  0.76171000  0.36394000  0.37940000  1.0
  C  C212  1  0.13606000  0.39777000  0.24333000  1.0
  C  C213  1  0.87940000  0.74334000  0.35889000  1.0
  C  C214  1  0.62060000  0.76171000  0.63606000  1.0
  C  C215  1  0.39777000  0.75666000  0.86394000  1.0
  C  C216  1  0.81737000  0.18344000  0.89988000  1.0
  C  C217  1  0.18344000  0.10013000  0.18263000  1.0
  C  C218  1  0.10013000  0.81737000  0.81656000  1.0
  C  C219  1  0.63394000  0.41670000  0.68343000  1.0
  C  C220  1  0.21724000  0.39987000  0.91669000  1.0
  C  C221  1  0.39987000  0.08331000  0.78276000  1.0
  C  C222  1  0.28277000  0.86607000  0.31737000  1.0
  C  C223  1  0.31656000  0.63393000  0.58331000  1.0
  C  C224  1  0.86607000  0.68264000  0.71724000  1.0
  C  C225  1  0.08331000  0.21724000  0.60012000  1.0
  C  C226  1  0.41669000  0.31656000  0.36607000  1.0
  C  C227  1  0.68263000  0.28275000  0.13394000  1.0
  C  C228  1  0.18263000  0.81656000  0.10012000  1.0
  C  C229  1  0.81656000  0.89987000  0.81737000  1.0
  C  C230  1  0.89987000  0.18263000  0.18344000  1.0
  C  C231  1  0.36607000  0.58331000  0.31656000  1.0
  C  C232  1  0.78276000  0.60013000  0.08331000  1.0
  C  C233  1  0.60013000  0.91669000  0.21724000  1.0
  C  C234  1  0.71724000  0.13394000  0.68263000  1.0
  C  C235  1  0.68344000  0.36607000  0.41669000  1.0
  C  C236  1  0.13393000  0.31737000  0.28276000  1.0
  C  C237  1  0.91669000  0.78276000  0.39988000  1.0
  C  C238  1  0.58331000  0.68343000  0.63394000  1.0
  C  C239  1  0.31737000  0.71725000  0.86606000  1.0
  C  C240  1  0.94500000  0.30833000  0.77142000  1.0
  C  C241  1  0.30834000  0.22859000  0.05499000  1.0
  C  C242  1  0.22859000  0.94500000  0.69166000  1.0
  C  C243  1  0.63667000  0.42025000  0.80834000  1.0
  C  C244  1  0.21642000  0.27141000  0.92025000  1.0
  C  C245  1  0.27141000  0.07975000  0.78358000  1.0
  C  C246  1  0.28358000  0.86332000  0.44501000  1.0
  C  C247  1  0.19166000  0.63667000  0.57975000  1.0
  C  C248  1  0.86333000  0.55499000  0.71642000  1.0
  C  C249  1  0.07974000  0.21641000  0.72860000  1.0
  C  C250  1  0.42026000  0.19167000  0.36333000  1.0
  C  C251  1  0.55500000  0.28359000  0.13667000  1.0
  C  C252  1  0.05500000  0.69167000  0.22858000  1.0
  C  C253  1  0.69166000  0.77141000  0.94501000  1.0
  C  C254  1  0.77141000  0.05500000  0.30834000  1.0
  C  C255  1  0.36333000  0.57975000  0.19166000  1.0
  C  C256  1  0.78358000  0.72859000  0.07975000  1.0
  C  C257  1  0.72859000  0.92025000  0.21642000  1.0
  C  C258  1  0.71641000  0.13667000  0.55499000  1.0
  C  C259  1  0.80834000  0.36333000  0.42025000  1.0
  C  C260  1  0.13667000  0.44501000  0.28358000  1.0
  C  C261  1  0.92025000  0.78358000  0.27141000  1.0
  C  C262  1  0.57974000  0.80833000  0.63667000  1.0
  C  C263  1  0.44500000  0.71641000  0.86334000  1.0
  C  C264  1  0.04727000  0.41092000  0.77836000  1.0
  C  C265  1  0.41092000  0.22164000  0.95273000  1.0
  C  C266  1  0.22164000  0.04727000  0.58908000  1.0
  C  C267  1  0.63636000  0.31072000  0.91091000  1.0
  C  C268  1  0.32563000  0.27836000  0.81072000  1.0
  C  C269  1  0.27836000  0.18928000  0.67437000  1.0
  C  C270  1  0.17436000  0.86364000  0.54728000  1.0
  C  C271  1  0.08908000  0.63635000  0.68928000  1.0
  C  C272  1  0.86365000  0.45273000  0.82563000  1.0
  C  C273  1  0.18928000  0.32563000  0.72164000  1.0
  C  C274  1  0.31072000  0.08908000  0.36365000  1.0
  C  C275  1  0.45273000  0.17436000  0.13635000  1.0
  C  C276  1  0.95273000  0.58908000  0.22164000  1.0
  C  C277  1  0.58908000  0.77836000  0.04727000  1.0
  C  C278  1  0.77836000  0.95273000  0.41092000  1.0
  C  C279  1  0.36364000  0.68928000  0.08909000  1.0
  C  C280  1  0.67437000  0.72164000  0.18928000  1.0
  C  C281  1  0.72164000  0.81072000  0.32563000  1.0
  C  C282  1  0.82563000  0.13635000  0.45273000  1.0
  C  C283  1  0.91092000  0.36365000  0.31072000  1.0
  C  C284  1  0.13635000  0.54727000  0.17437000  1.0
  C  C285  1  0.81072000  0.67437000  0.27836000  1.0
  C  C286  1  0.68928000  0.91092000  0.63635000  1.0
  C  C287  1  0.54727000  0.82563000  0.86365000  1.0
  C  C288  1  0.01963000  0.38298000  0.73090000  1.0
  C  C289  1  0.38297000  0.26909000  0.98038000  1.0
  C  C290  1  0.26910000  0.01963000  0.61703000  1.0
  C  C291  1  0.63666000  0.38613000  0.88296000  1.0
  C  C292  1  0.25053000  0.23091000  0.88612000  1.0
  C  C293  1  0.23090000  0.11388000  0.74947000  1.0
  C  C294  1  0.24947000  0.86334000  0.51963000  1.0
  C  C295  1  0.11703000  0.63665000  0.61387000  1.0
  C  C296  1  0.86334000  0.48037000  0.75053000  1.0
  C  C297  1  0.11387000  0.25053000  0.76910000  1.0
  C  C298  1  0.38613000  0.11703000  0.36335000  1.0
  C  C299  1  0.48038000  0.24947000  0.13665000  1.0
  C  C300  1  0.98037000  0.61703000  0.26910000  1.0
  C  C301  1  0.61703000  0.73091000  0.01962000  1.0
  C  C302  1  0.73090000  0.98037000  0.38297000  1.0
  C  C303  1  0.36334000  0.61387000  0.11703000  1.0
  C  C304  1  0.74947000  0.76909000  0.11388000  1.0
  C  C305  1  0.76910000  0.88612000  0.25053000  1.0
  C  C306  1  0.75053000  0.13666000  0.48037000  1.0
  C  C307  1  0.88298000  0.36335000  0.38612000  1.0
  C  C308  1  0.13665000  0.51962000  0.24948000  1.0
  C  C309  1  0.88613000  0.74947000  0.23090000  1.0
  C  C310  1  0.61387000  0.88297000  0.63665000  1.0
  C  C311  1  0.51962000  0.75052000  0.86335000  1.0
  O  O312  1  0.99634000  0.36818000  0.99083000  1.0
  O  O313  1  0.36818000  0.00917000  0.00366000  1.0
  O  O314  1  0.00917000  0.99634000  0.63182000  1.0
  O  O315  1  0.62817000  0.14100000  0.86817000  1.0
  O  O316  1  0.48717000  0.49083000  0.64099000  1.0
  O  O317  1  0.49083000  0.35901000  0.51283000  1.0
  O  O318  1  0.01283000  0.87183000  0.49634000  1.0
  O  O319  1  0.13182000  0.62816000  0.85901000  1.0
  O  O320  1  0.87184000  0.50366000  0.98717000  1.0
  O  O321  1  0.35900000  0.48716000  0.50917000  1.0
  O  O322  1  0.14100000  0.13182000  0.37184000  1.0
  O  O323  1  0.50366000  0.01283000  0.12816000  1.0
  O  O324  1  0.00366000  0.63182000  0.00917000  1.0
  O  O325  1  0.63182000  0.99083000  0.99634000  1.0
  O  O326  1  0.99083000  0.00366000  0.36818000  1.0
  O  O327  1  0.37183000  0.85900000  0.13183000  1.0
  O  O328  1  0.51283000  0.50917000  0.35901000  1.0
  O  O329  1  0.50917000  0.64099000  0.48717000  1.0
  O  O330  1  0.98717000  0.12817000  0.50366000  1.0
  O  O331  1  0.86818000  0.37184000  0.14099000  1.0
  O  O332  1  0.12816000  0.49634000  0.01283000  1.0
  O  O333  1  0.64100000  0.51284000  0.49082000  1.0
  O  O334  1  0.85901000  0.86818000  0.62816000  1.0
  O  O335  1  0.49634000  0.98717000  0.87184000  1.0
  O  O336  1  0.10964000  0.46704000  0.86564000  1.0
  O  O337  1  0.46704000  0.13435000  0.89037000  1.0
  O  O338  1  0.13436000  0.10964000  0.53295000  1.0
  O  O339  1  0.64259000  0.16731000  0.96704000  1.0
  O  O340  1  0.47528000  0.36564000  0.66731000  1.0
  O  O341  1  0.36565000  0.33269000  0.52472000  1.0
  O  O342  1  0.02472000  0.85741000  0.60964000  1.0
  O  O343  1  0.03296000  0.64260000  0.83268000  1.0
  O  O344  1  0.85741000  0.39037000  0.97527000  1.0
  O  O345  1  0.33268000  0.47527000  0.63436000  1.0
  O  O346  1  0.16732000  0.03296000  0.35740000  1.0
  O  O347  1  0.39036000  0.02471000  0.14260000  1.0
  O  O348  1  0.89036000  0.53295000  0.13436000  1.0
  O  O349  1  0.53296000  0.86565000  0.10963000  1.0
  O  O350  1  0.86564000  0.89036000  0.46704000  1.0
  O  O351  1  0.35741000  0.83269000  0.03296000  1.0
  O  O352  1  0.52472000  0.63436000  0.33269000  1.0
  O  O353  1  0.63435000  0.66731000  0.47528000  1.0
  O  O354  1  0.97528000  0.14260000  0.39036000  1.0
  O  O355  1  0.96704000  0.35740000  0.16732000  1.0
  O  O356  1  0.14259000  0.60963000  0.02472000  1.0
  O  O357  1  0.66732000  0.52472000  0.36564000  1.0
  O  O358  1  0.83268000  0.96704000  0.64259000  1.0
  O  O359  1  0.60964000  0.97529000  0.85740000  1.0
  O  O360  1  0.79395000  0.16148000  0.85433000  1.0
  O  O361  1  0.16148000  0.14566000  0.20605000  1.0
  O  O362  1  0.14567000  0.79395000  0.83852000  1.0
  O  O363  1  0.63247000  0.48418000  0.66148000  1.0
  O  O364  1  0.14829000  0.35434000  0.98418000  1.0
  O  O365  1  0.35433000  0.01581000  0.85172000  1.0
  O  O366  1  0.35172000  0.86753000  0.29395000  1.0
  O  O367  1  0.33852000  0.63247000  0.51581000  1.0
  O  O368  1  0.86753000  0.70605000  0.64828000  1.0
  O  O369  1  0.01581000  0.14828000  0.64567000  1.0
  O  O370  1  0.48419000  0.33852000  0.36754000  1.0
  O  O371  1  0.70605000  0.35172000  0.13247000  1.0
  O  O372  1  0.20605000  0.83852000  0.14567000  1.0
  O  O373  1  0.83852000  0.85433000  0.79394000  1.0
  O  O374  1  0.85433000  0.20605000  0.16148000  1.0
  O  O375  1  0.36753000  0.51581000  0.33852000  1.0
  O  O376  1  0.85172000  0.64567000  0.01581000  1.0
  O  O377  1  0.64567000  0.98419000  0.14828000  1.0
  O  O378  1  0.64828000  0.13247000  0.70605000  1.0
  O  O379  1  0.66148000  0.36753000  0.48419000  1.0
  O  O380  1  0.13247000  0.29395000  0.35172000  1.0
  O  O381  1  0.98419000  0.85172000  0.35433000  1.0
  O  O382  1  0.51580000  0.66147000  0.63247000  1.0
  O  O383  1  0.29395000  0.64828000  0.86753000  1.0
  O  O384  1  0.87913000  0.24464000  0.99154000  1.0
  O  O385  1  0.24464000  0.00846000  0.12087000  1.0
  O  O386  1  0.00846000  0.87913000  0.75536000  1.0
  O  O387  1  0.63449000  0.26382000  0.74464000  1.0
  O  O388  1  0.37067000  0.49154000  0.76382000  1.0
  O  O389  1  0.49154000  0.23618000  0.62933000  1.0
  O  O390  1  0.12933000  0.86551000  0.37913000  1.0
  O  O391  1  0.25536000  0.63449000  0.73618000  1.0
  O  O392  1  0.86551000  0.62087000  0.87067000  1.0
  O  O393  1  0.23617000  0.37066000  0.50847000  1.0
  O  O394  1  0.26382000  0.25535000  0.36551000  1.0
  O  O395  1  0.62087000  0.12933000  0.13449000  1.0
  O  O396  1  0.12086000  0.75536000  0.00846000  1.0
  O  O397  1  0.75536000  0.99154000  0.87913000  1.0
  O  O398  1  0.99154000  0.12087000  0.24464000  1.0
  O  O399  1  0.36551000  0.73618000  0.25536000  1.0
  O  O400  1  0.62933000  0.50846000  0.23618000  1.0
  O  O401  1  0.50846000  0.76382000  0.37067000  1.0
  O  O402  1  0.87067000  0.13449000  0.62087000  1.0
  O  O403  1  0.74464000  0.36550000  0.26382000  1.0
  O  O404  1  0.13450000  0.37914000  0.12932000  1.0
  O  O405  1  0.76382000  0.62933000  0.49154000  1.0
  O  O406  1  0.73618000  0.74465000  0.63449000  1.0
  O  O407  1  0.37913000  0.87067000  0.86551000  1.0
  O  O408  1  0.77503000  0.14200000  0.98130000  1.0
  O  O409  1  0.14200000  0.01870000  0.22497000  1.0
  O  O410  1  0.01870000  0.77503000  0.85800000  1.0
  O  O411  1  0.63304000  0.37671000  0.64199000  1.0
  O  O412  1  0.25633000  0.48130000  0.87670000  1.0
  O  O413  1  0.48129000  0.12329000  0.74368000  1.0
  O  O414  1  0.24367000  0.86696000  0.27504000  1.0
  O  O415  1  0.35800000  0.63303000  0.62330000  1.0
  O  O416  1  0.86697000  0.72497000  0.75633000  1.0
  O  O417  1  0.12328000  0.25631000  0.51872000  1.0
  O  O418  1  0.37671000  0.35800000  0.36697000  1.0
  O  O419  1  0.72497000  0.24367000  0.13304000  1.0
  O  O420  1  0.22497000  0.85800000  0.01870000  1.0
  O  O421  1  0.85800000  0.98130000  0.77503000  1.0
  O  O422  1  0.98130000  0.22497000  0.14200000  1.0
  O  O423  1  0.36696000  0.62329000  0.35801000  1.0
  O  O424  1  0.74367000  0.51870000  0.12330000  1.0
  O  O425  1  0.51871000  0.87671000  0.25632000  1.0
  O  O426  1  0.75633000  0.13304000  0.72496000  1.0
  O  O427  1  0.64200000  0.36697000  0.37670000  1.0
  O  O428  1  0.13303000  0.27503000  0.24368000  1.0
  O  O429  1  0.87671000  0.74368000  0.48129000  1.0
  O  O430  1  0.62329000  0.64200000  0.63304000  1.0
  O  O431  1  0.27503000  0.75633000  0.86696000  1.0
