# generated using pymatgen
data_Zn2H18C31Br6(NO9)2
_symmetry_space_group_name_H-M   'P 1'
_cell_length_a   9.95250000
_cell_length_b   10.91740000
_cell_length_c   10.95910000
_cell_angle_alpha   91.00540000
_cell_angle_beta   92.63330000
_cell_angle_gamma   96.31000000
_symmetry_Int_Tables_number   1
_chemical_formula_structural   Zn2H18C31Br6(NO9)2
_chemical_formula_sum   'Zn2 H18 C31 Br6 N2 O18'
_cell_volume   1181.99574213
_cell_formula_units_Z   1
loop_
 _symmetry_equiv_pos_site_id
 _symmetry_equiv_pos_as_xyz
  1  'x, y, z'
loop_
 _atom_site_type_symbol
 _atom_site_label
 _atom_site_symmetry_multiplicity
 _atom_site_fract_x
 _atom_site_fract_y
 _atom_site_fract_z
 _atom_site_occupancy
  Zn  Zn0  1  0.64727000  0.50692000  0.51300000  1.0
  Zn  Zn1  1  0.35396000  0.47929000  0.49124000  1.0
  H  H2  1  0.72327000  0.55475000  0.11657000  1.0
  H  H3  1  0.45322000  0.31237000  0.13212000  1.0
  H  H4  1  0.37375000  0.32889000  0.92919000  1.0
  H  H5  1  0.29815000  0.08910000  0.57067000  1.0
  H  H6  1  0.81789000  0.15013000  0.45185000  1.0
  H  H7  1  0.75331000  0.89265000  0.33274000  1.0
  H  H8  1  0.13796000  0.39187000  0.65483000  1.0
  H  H9  1  0.83244000  0.59971000  0.25628000  1.0
  H  H10  1  0.90776000  0.73159000  0.34401000  1.0
  H  H11  1  0.70893000  0.49083000  0.92626000  1.0
  H  H12  1  0.62501000  0.35613000  0.10037000  1.0
  H  H13  1  0.29561000  0.47364000  0.09364000  1.0
  H  H14  1  0.34791000  0.63267000  0.11230000  1.0
  H  H15  1  0.05595000  0.53180000  0.83745000  1.0
  H  H16  1  0.64244000  0.09867000  0.11420000  1.0
  H  H17  1  0.56798000  0.85686000  0.18448000  1.0
  H  H18  1  0.73512000  0.26697000  0.75252000  1.0
  H  H19  1  0.05669000  0.35143000  0.13607000  1.0
  C  C20  1  0.51295000  0.72708000  0.51873000  1.0
  C  C21  1  0.49816000  0.49481000  0.88322000  1.0
  C  C22  1  0.47969000  0.36602000  0.94536000  1.0
  C  C23  1  0.37499000  0.55800000  0.93031000  1.0
  C  C24  1  0.61085000  0.94300000  0.47421000  1.0
  C  C25  1  0.50562000  0.86293000  0.51855000  1.0
  C  C26  1  0.39151000  0.92111000  0.55162000  1.0
  C  C27  1  0.38661000  0.04814000  0.54136000  1.0
  C  C28  1  0.49261000  0.12534000  0.49377000  1.0
  C  C29  1  0.60395000  0.06845000  0.46004000  1.0
  C  C30  1  0.73852000  0.09128000  0.39956000  1.0
  C  C31  1  0.50828000  0.51081000  0.26494000  1.0
  C  C32  1  0.74639000  0.94764000  0.41641000  1.0
  C  C33  1  0.06767000  0.54460000  0.41442000  1.0
  C  C34  1  0.07909000  0.43779000  0.58672000  1.0
  C  C35  1  0.94083000  0.44411000  0.60039000  1.0
  C  C36  1  0.93186000  0.55753000  0.43282000  1.0
  C  C37  1  0.91352000  0.63386000  0.32259000  1.0
  C  C38  1  0.06189000  0.60644000  0.29137000  1.0
  C  C39  1  0.48662000  0.26052000  0.48704000  1.0
  C  C40  1  0.49138000  0.48309000  0.74188000  1.0
  C  C41  1  0.63251000  0.59000000  0.07622000  1.0
  C  C42  1  0.63720000  0.55910000  0.93638000  1.0
  C  C43  1  0.52076000  0.37743000  0.08153000  1.0
  C  C44  1  0.37386000  0.54722000  0.07104000  1.0
  C  C45  1  0.50880000  0.51160000  0.12475000  1.0
  C  C46  1  0.23414000  0.49890000  0.88009000  1.0
  C  C47  1  0.73379000  0.13490000  0.26942000  1.0
  C  C48  1  0.65310000  0.72520000  0.11949000  1.0
  C  C49  1  0.87717000  0.38724000  0.71037000  1.0
  C  C50  1  0.05141000  0.51961000  0.17907000  1.0
  Br  Br51  1  0.23604000  0.83453000  0.61802000  1.0
  Br  Br52  1  0.90360000  0.91576000  0.52202000  1.0
  Br  Br53  1  0.18728000  0.75168000  0.26582000  1.0
  Br  Br54  1  0.72736000  0.69460000  0.84312000  1.0
  Br  Br55  1  0.56799000  0.22570000  0.87527000  1.0
  Br  Br56  1  0.39730000  0.73409000  0.88730000  1.0
  N  N57  1  0.14541000  0.48591000  0.49010000  1.0
  N  N58  1  0.86184000  0.50396000  0.52151000  1.0
  O  O59  1  0.62851000  0.68975000  0.53853000  1.0
  O  O60  1  0.40201000  0.66112000  0.49383000  1.0
  O  O61  1  0.62017000  0.53990000  0.32446000  1.0
  O  O62  1  0.39512000  0.47540000  0.30890000  1.0
  O  O63  1  0.59624000  0.32521000  0.46323000  1.0
  O  O64  1  0.37380000  0.29990000  0.50765000  1.0
  O  O65  1  0.60038000  0.46506000  0.69183000  1.0
  O  O66  1  0.37819000  0.49170000  0.68734000  1.0
  O  O67  1  0.19933000  0.38737000  0.88742000  1.0
  O  O68  1  0.14887000  0.57809000  0.84404000  1.0
  O  O69  1  0.80575000  0.22167000  0.23046000  1.0
  O  O70  1  0.63747000  0.06521000  0.19681000  1.0
  O  O71  1  0.76358000  0.78643000  0.12493000  1.0
  O  O72  1  0.54114000  0.76983000  0.16092000  1.0
  O  O73  1  0.90500000  0.43137000  0.81334000  1.0
  O  O74  1  0.79221000  0.28803000  0.68145000  1.0
  O  O75  1  0.01550000  0.55025000  0.07787000  1.0
  O  O76  1  0.07749000  0.40493000  0.20907000  1.0
