# generated using pymatgen
data_AlH15C24(SO5)3
_symmetry_space_group_name_H-M   'P 1'
_cell_length_a   4.31254000
_cell_length_b   28.37700000
_cell_length_c   28.37665001
_cell_angle_alpha   59.99877598
_cell_angle_beta   89.99709999
_cell_angle_gamma   89.99820000
_symmetry_Int_Tables_number   1
_chemical_formula_structural   AlH15C24(SO5)3
_chemical_formula_sum   'Al2 H30 C48 S6 O30'
_cell_volume   3007.36412400
_cell_formula_units_Z   2
loop_
 _symmetry_equiv_pos_site_id
 _symmetry_equiv_pos_as_xyz
  1  'x, y, z'
loop_
 _atom_site_type_symbol
 _atom_site_label
 _atom_site_symmetry_multiplicity
 _atom_site_fract_x
 _atom_site_fract_y
 _atom_site_fract_z
 _atom_site_occupancy
  Al  Al0  1  0.97301000  0.99999000  0.50000000  1.0
  Al  Al1  1  0.97311000  0.66667000  0.16667000  1.0
  H  H2  1  0.50967000  0.51764000  0.30234000  1.0
  H  H3  1  0.55620000  0.41783000  0.35196000  1.0
  H  H4  1  0.51586000  0.41859000  0.19942000  1.0
  H  H5  1  0.51573000  0.24807000  0.46726000  1.0
  H  H6  1  0.55633000  0.24882000  0.31472000  1.0
  H  H7  1  0.50970000  0.14902000  0.36434000  1.0
  H  H8  1  0.55647000  0.33479000  0.27836000  1.0
  H  H9  1  0.55650000  0.33187000  0.38831000  1.0
  H  H10  1  0.50965000  0.80233000  0.18002000  1.0
  H  H11  1  0.55626000  0.85196000  0.23020000  1.0
  H  H12  1  0.51577000  0.69942000  0.38199000  1.0
  H  H13  1  0.51579000  0.96725000  0.28467000  1.0
  H  H14  1  0.55630000  0.81471000  0.43646000  1.0
  H  H15  1  0.50969000  0.86434000  0.48664000  1.0
  H  H16  1  0.55644000  0.77836000  0.38685000  1.0
  H  H17  1  0.55654000  0.88831000  0.27981000  1.0
  H  H18  1  0.50963000  0.68002000  0.01765000  1.0
  H  H19  1  0.55621000  0.73020000  0.91784000  1.0
  H  H20  1  0.51590000  0.88199000  0.91859000  1.0
  H  H21  1  0.51573000  0.78467000  0.74808000  1.0
  H  H22  1  0.55632000  0.93646000  0.74882000  1.0
  H  H23  1  0.50968000  0.98664000  0.64901000  1.0
  H  H24  1  0.55648000  0.88685000  0.83478000  1.0
  H  H25  1  0.55652000  0.77981000  0.83188000  1.0
  H  H26  1  0.98186000  0.56748000  0.10773000  1.0
  H  H27  1  0.98165000  0.09919000  0.55895000  1.0
  H  H28  1  0.98168000  0.60772000  0.32482000  1.0
  H  H29  1  0.98167000  0.05895000  0.34184000  1.0
  H  H30  1  0.98181000  0.82480000  0.06747000  1.0
  H  H31  1  0.98163000  0.84184000  0.59921000  1.0
  C  C32  1  0.47453000  0.94829000  0.58074000  1.0
  C  C33  1  0.47456000  0.08073000  0.47097000  1.0
  C  C34  1  0.47458000  0.97097000  0.44829000  1.0
  C  C35  1  0.47466000  0.58593000  0.19571000  1.0
  C  C36  1  0.47460000  0.69571000  0.21837000  1.0
  C  C37  1  0.47464000  0.71837000  0.08593000  1.0
  C  C38  1  0.49838000  0.52520000  0.22302000  1.0
  C  C39  1  0.51779000  0.49562000  0.28000000  1.0
  C  C40  1  0.54408000  0.43933000  0.30766000  1.0
  C  C41  1  0.54819000  0.41006000  0.27956000  1.0
  C  C42  1  0.52577000  0.43983000  0.22249000  1.0
  C  C43  1  0.50170000  0.49636000  0.19475000  1.0
  C  C44  1  0.55777000  0.35090000  0.30623000  1.0
  C  C45  1  0.55776000  0.31576000  0.36044000  1.0
  C  C46  1  0.52567000  0.22683000  0.44418000  1.0
  C  C47  1  0.54818000  0.25660000  0.38711000  1.0
  C  C48  1  0.54412000  0.22732000  0.35902000  1.0
  C  C49  1  0.51780000  0.17104000  0.38668000  1.0
  C  C50  1  0.49830000  0.14146000  0.44366000  1.0
  C  C51  1  0.50158000  0.17029000  0.47193000  1.0
  C  C52  1  0.49831000  0.72301000  0.25179000  1.0
  C  C53  1  0.51777000  0.77999000  0.22438000  1.0
  C  C54  1  0.54409000  0.80766000  0.25300000  1.0
  C  C55  1  0.54817000  0.77955000  0.31038000  1.0
  C  C56  1  0.52571000  0.72249000  0.33768000  1.0
  C  C57  1  0.50161000  0.69475000  0.30889000  1.0
  C  C58  1  0.55776000  0.80624000  0.34286000  1.0
  C  C59  1  0.55779000  0.86044000  0.32379000  1.0
  C  C60  1  0.52572000  0.94418000  0.32898000  1.0
  C  C61  1  0.54820000  0.88712000  0.35628000  1.0
  C  C62  1  0.54412000  0.85901000  0.41366000  1.0
  C  C63  1  0.51781000  0.88669000  0.44227000  1.0
  C  C64  1  0.49834000  0.94366000  0.41487000  1.0
  C  C65  1  0.50165000  0.97193000  0.35777000  1.0
  C  C66  1  0.49837000  0.75178000  0.02520000  1.0
  C  C67  1  0.51779000  0.72438000  0.99563000  1.0
  C  C68  1  0.54409000  0.75300000  0.93934000  1.0
  C  C69  1  0.54821000  0.81037000  0.91007000  1.0
  C  C70  1  0.52579000  0.83768000  0.93983000  1.0
  C  C71  1  0.50170000  0.80888000  0.99637000  1.0
  C  C72  1  0.55779000  0.84287000  0.85090000  1.0
  C  C73  1  0.55778000  0.82380000  0.81576000  1.0
  C  C74  1  0.52566000  0.82899000  0.72683000  1.0
  C  C75  1  0.54817000  0.85629000  0.75660000  1.0
  C  C76  1  0.54411000  0.91365000  0.72733000  1.0
  C  C77  1  0.51779000  0.94227000  0.67104000  1.0
  C  C78  1  0.49829000  0.91487000  0.64147000  1.0
  C  C79  1  0.50158000  0.85777000  0.67030000  1.0
  S  S80  1  0.42619000  0.52820000  0.12343000  1.0
  S  S81  1  0.42597000  0.13847000  0.54324000  1.0
  S  S82  1  0.42604000  0.62344000  0.34838000  1.0
  S  S83  1  0.42602000  0.04324000  0.31828000  1.0
  S  S84  1  0.42616000  0.84837000  0.02819000  1.0
  S  S85  1  0.42598000  0.81828000  0.63848000  1.0
  O  O86  1  0.70292000  0.00093000  0.44525000  1.0
  O  O87  1  0.70288000  0.94525000  0.55381000  1.0
  O  O88  1  0.70290000  0.05381000  0.50093000  1.0
  O  O89  1  0.23427000  0.95983000  0.47784000  1.0
  O  O90  1  0.23426000  0.06232000  0.45983000  1.0
  O  O91  1  0.23422000  0.97784000  0.56233000  1.0
  O  O92  1  0.70299000  0.72141000  0.11285000  1.0
  O  O93  1  0.70302000  0.61285000  0.16575000  1.0
  O  O94  1  0.70297000  0.66575000  0.22141000  1.0
  O  O95  1  0.23436000  0.68882000  0.10434000  1.0
  O  O96  1  0.23432000  0.70685000  0.18881000  1.0
  O  O97  1  0.23437000  0.60434000  0.20685000  1.0
  O  O98  1  0.70360000  0.55428000  0.09148000  1.0
  O  O99  1  0.27762000  0.48896000  0.11321000  1.0
  O  O100  1  0.21097000  0.57597000  0.11371000  1.0
  O  O101  1  0.70336000  0.11240000  0.57520000  1.0
  O  O102  1  0.27739000  0.17771000  0.55345000  1.0
  O  O103  1  0.21073000  0.09070000  0.55297000  1.0
  O  O104  1  0.70339000  0.59147000  0.35427000  1.0
  O  O105  1  0.27743000  0.61322000  0.39784000  1.0
  O  O106  1  0.21080000  0.61371000  0.31034000  1.0
  O  O107  1  0.70338000  0.07520000  0.31239000  1.0
  O  O108  1  0.27745000  0.05345000  0.26882000  1.0
  O  O109  1  0.21074000  0.05297000  0.35632000  1.0
  O  O110  1  0.70354000  0.85425000  0.05426000  1.0
  O  O111  1  0.27756000  0.89783000  0.98895000  1.0
  O  O112  1  0.21092000  0.81032000  0.07597000  1.0
  O  O113  1  0.70335000  0.81239000  0.61241000  1.0
  O  O114  1  0.27737000  0.76883000  0.67773000  1.0
  O  O115  1  0.21073000  0.85632000  0.59071000  1.0
