# generated using pymatgen
data_Zn4H24C21O13
_symmetry_space_group_name_H-M   'P 1'
_cell_length_a   15.93580000
_cell_length_b   16.29990000
_cell_length_c   16.30540000
_cell_angle_alpha   90.61110000
_cell_angle_beta   116.56200000
_cell_angle_gamma   118.83400000
_symmetry_Int_Tables_number   1
_chemical_formula_structural   Zn4H24C21O13
_chemical_formula_sum   'Zn8 H48 C42 O26'
_cell_volume   3177.19953912
_cell_formula_units_Z   2
loop_
 _symmetry_equiv_pos_site_id
 _symmetry_equiv_pos_as_xyz
  1  'x, y, z'
loop_
 _atom_site_type_symbol
 _atom_site_label
 _atom_site_symmetry_multiplicity
 _atom_site_fract_x
 _atom_site_fract_y
 _atom_site_fract_z
 _atom_site_occupancy
  Zn  Zn0  1  0.95627000  0.88749000  0.93508000  1.0
  Zn  Zn1  1  0.97031000  0.08404000  0.99592000  1.0
  Zn  Zn2  1  0.14743000  0.09765000  0.94836000  1.0
  Zn  Zn3  1  0.15373000  0.04476000  0.13974000  1.0
  Zn  Zn4  1  0.14636000  0.67089000  0.50837000  1.0
  Zn  Zn5  1  0.15858000  0.48954000  0.56920000  1.0
  Zn  Zn6  1  0.96770000  0.45793000  0.36014000  1.0
  Zn  Zn7  1  0.96273000  0.51182000  0.54881000  1.0
  H  H8  1  0.63508000  0.89185000  0.90942000  1.0
  H  H9  1  0.62708000  0.70086000  0.89370000  1.0
  H  H10  1  0.62200000  0.75955000  0.98166000  1.0
  H  H11  1  0.43110000  0.61296000  0.79927000  1.0
  H  H12  1  0.42325000  0.68058000  0.87792000  1.0
  H  H13  1  0.43592000  0.80157000  0.79526000  1.0
  H  H14  1  0.56473000  0.86469000  0.73613000  1.0
  H  H15  1  0.56355000  0.75439000  0.72902000  1.0
  H  H16  1  0.01802000  0.95324000  0.65928000  1.0
  H  H17  1  0.81956000  0.77424000  0.64830000  1.0
  H  H18  1  0.82239000  0.84436000  0.56636000  1.0
  H  H19  1  0.83800000  0.66761000  0.57073000  1.0
  H  H20  1  0.80888000  0.71812000  0.47361000  1.0
  H  H21  1  0.00899000  0.83797000  0.53993000  1.0
  H  H22  1  0.14099000  0.89351000  0.71577000  1.0
  H  H23  1  0.04108000  0.78726000  0.72778000  1.0
  H  H24  1  0.20599000  0.79552000  0.14558000  1.0
  H  H25  1  0.95453000  0.64058000  0.04392000  1.0
  H  H26  1  0.04659000  0.64933000  0.00735000  1.0
  H  H27  1  0.99668000  0.53405000  0.12748000  1.0
  H  H28  1  0.12323000  0.58218000  0.12909000  1.0
  H  H29  1  0.22655000  0.69737000  0.27582000  1.0
  H  H30  1  0.19719000  0.82657000  0.28900000  1.0
  H  H31  1  0.04947000  0.74515000  0.22297000  1.0
  H  H32  1  0.19787000  0.39163000  0.96433000  1.0
  H  H33  1  0.95542000  0.31880000  0.89375000  1.0
  H  H34  1  0.07698000  0.42061000  0.98964000  1.0
  H  H35  1  0.95133000  0.41388000  0.78690000  1.0
  H  H36  1  0.06840000  0.51948000  0.88171000  1.0
  H  H37  1  0.19762000  0.50112000  0.85702000  1.0
  H  H38  1  0.16019000  0.33987000  0.80439000  1.0
  H  H39  1  0.01393000  0.28481000  0.75427000  1.0
  H  H40  1  0.02202000  0.06517000  0.32128000  1.0
  H  H41  1  0.85633000  0.10302000  0.16648000  1.0
  H  H42  1  0.82136000  0.99801000  0.20812000  1.0
  H  H43  1  0.83372000  0.16532000  0.28062000  1.0
  H  H44  1  0.84917000  0.08401000  0.34826000  1.0
  H  H45  1  0.04152000  0.19389000  0.44655000  1.0
  H  H46  1  0.15833000  0.24487000  0.37802000  1.0
  H  H47  1  0.06143000  0.25863000  0.27761000  1.0
  H  H48  1  0.44038000  0.34525000  0.23496000  1.0
  H  H49  1  0.48132000  0.31719000  0.07381000  1.0
  H  H50  1  0.45191000  0.40189000  0.10041000  1.0
  H  H51  1  0.67288000  0.43483000  0.17469000  1.0
  H  H52  1  0.64700000  0.51547000  0.21668000  1.0
  H  H53  1  0.64642000  0.45080000  0.34606000  1.0
  H  H54  1  0.54755000  0.27580000  0.32520000  1.0
  H  H55  1  0.56642000  0.25354000  0.22907000  1.0
  C  C56  1  0.76088000  0.88878000  0.90073000  1.0
  C  C57  1  0.64062000  0.83719000  0.87578000  1.0
  C  C58  1  0.59481000  0.74326000  0.90534000  1.0
  C  C59  1  0.46585000  0.68728000  0.83851000  1.0
  C  C60  1  0.44546000  0.74693000  0.76726000  1.0
  C  C61  1  0.55587000  0.80389000  0.76751000  1.0
  C  C62  1  0.34243000  0.68830000  0.66853000  1.0
  C  C63  1  0.01531000  0.92551000  0.78438000  1.0
  C  C64  1  0.98797000  0.88851000  0.68443000  1.0
  C  C65  1  0.86373000  0.81020000  0.61093000  1.0
  C  C66  1  0.86447000  0.73628000  0.55108000  1.0
  C  C67  1  0.98765000  0.78470000  0.57948000  1.0
  C  C68  1  0.05135000  0.84022000  0.68599000  1.0
  C  C69  1  0.01804000  0.71397000  0.56270000  1.0
  C  C70  1  0.09390000  0.84142000  0.09570000  1.0
  C  C71  1  0.12160000  0.76777000  0.13316000  1.0
  C  C72  1  0.04079000  0.66113000  0.07052000  1.0
  C  C73  1  0.07113000  0.60231000  0.13918000  1.0
  C  C74  1  0.13717000  0.67057000  0.24188000  1.0
  C  C75  1  0.12783000  0.76030000  0.22943000  1.0
  C  C76  1  0.10424000  0.62737000  0.31261000  1.0
  C  C77  1  0.08012000  0.24209000  0.92703000  1.0
  C  C78  1  0.10840000  0.34073000  0.90982000  1.0
  C  C79  1  0.03999000  0.38009000  0.91585000  1.0
  C  C80  1  0.03705000  0.44468000  0.84661000  1.0
  C  C81  1  0.10862000  0.44366000  0.80774000  1.0
  C  C82  1  0.09760000  0.34481000  0.81164000  1.0
  C  C83  1  0.08251000  0.45933000  0.71011000  1.0
  C  C84  1  0.03000000  0.09353000  0.19718000  1.0
  C  C85  1  0.00177000  0.10672000  0.27153000  1.0
  C  C86  1  0.88033000  0.07760000  0.23030000  1.0
  C  C87  1  0.88311000  0.13274000  0.31015000  1.0
  C  C88  1  0.00797000  0.21344000  0.38042000  1.0
  C  C89  1  0.06928000  0.21501000  0.32837000  1.0
  C  C90  1  0.03266000  0.31461000  0.41027000  1.0
  C  C91  1  0.34569000  0.20617000  0.13869000  1.0
  C  C92  1  0.45458000  0.30522000  0.19300000  1.0
  C  C93  1  0.49676000  0.36597000  0.13295000  1.0
  C  C94  1  0.62394000  0.43931000  0.20301000  1.0
  C  C95  1  0.65136000  0.40921000  0.29667000  1.0
  C  C96  1  0.55518000  0.30142000  0.26550000  1.0
  C  C97  1  0.76615000  0.42488000  0.35309000  1.0
  O  O98  1  0.05665000  0.02743000  0.00404000  1.0
  O  O99  1  0.81090000  0.98133000  0.91500000  1.0
  O  O100  1  0.80244000  0.83777000  0.90460000  1.0
  O  O101  1  0.31452000  0.60328000  0.63125000  1.0
  O  O102  1  0.29062000  0.73007000  0.62931000  1.0
  O  O103  1  0.10130000  0.01243000  0.83166000  1.0
  O  O104  1  0.95396000  0.86771000  0.81405000  1.0
  O  O105  1  0.98797000  0.63951000  0.59372000  1.0
  O  O106  1  0.07298000  0.73536000  0.51989000  1.0
  O  O107  1  0.16111000  0.92854000  0.15197000  1.0
  O  O108  1  0.00812000  0.81184000  0.01278000  1.0
  O  O109  1  0.02563000  0.53772000  0.28556000  1.0
  O  O110  1  0.16039000  0.68736000  0.39559000  1.0
  O  O111  1  0.13142000  0.20762000  0.91398000  1.0
  O  O112  1  0.00930000  0.20202000  0.95388000  1.0
  O  O113  1  0.99577000  0.46221000  0.66043000  1.0
  O  O114  1  0.15105000  0.46754000  0.68549000  1.0
  O  O115  1  0.09132000  0.05907000  0.21573000  1.0
  O  O116  1  0.99202000  0.11989000  0.12285000  1.0
  O  O117  1  0.97103000  0.33904000  0.34934000  1.0
  O  O118  1  0.11686000  0.36831000  0.49421000  1.0
  O  O119  1  0.30085000  0.16594000  0.18731000  1.0
  O  O120  1  0.30662000  0.17077000  0.05039000  1.0
  O  O121  1  0.81303000  0.42323000  0.30747000  1.0
  O  O122  1  0.80602000  0.43735000  0.44308000  1.0
  O  O123  1  0.05730000  0.53078000  0.49585000  1.0
