# generated using pymatgen
data_ZnH2C11N(OF)4
_symmetry_space_group_name_H-M   'P 1'
_cell_length_a   10.63770000
_cell_length_b   11.87340000
_cell_length_c   16.08970000
_cell_angle_alpha   90.00020000
_cell_angle_beta   89.99990000
_cell_angle_gamma   89.99930000
_symmetry_Int_Tables_number   1
_chemical_formula_structural   ZnH2C11N(OF)4
_chemical_formula_sum   'Zn2 H4 C22 N2 O8 F8'
_cell_volume   2032.22029306
_cell_formula_units_Z   2
loop_
 _symmetry_equiv_pos_site_id
 _symmetry_equiv_pos_as_xyz
  1  'x, y, z'
loop_
 _atom_site_type_symbol
 _atom_site_label
 _atom_site_symmetry_multiplicity
 _atom_site_fract_x
 _atom_site_fract_y
 _atom_site_fract_z
 _atom_site_occupancy
  Zn  Zn0  1  0.62919000  0.50030000  0.50000000  1.0
  Zn  Zn1  1  0.37076000  0.50025000  0.50000000  1.0
  H  H2  1  0.61624000  0.64233000  0.92827000  1.0
  H  H3  1  0.39805000  0.65074000  0.92826000  1.0
  H  H4  1  0.61625000  0.64233000  0.07174000  1.0
  H  H5  1  0.39805000  0.65075000  0.07174000  1.0
  C  C6  1  0.49999000  0.71911000  0.50000000  1.0
  C  C7  1  0.49997000  0.49963000  0.33849000  1.0
  C  C8  1  0.49997000  0.49963000  0.66151000  1.0
  C  C9  1  0.49999000  0.94355000  0.50000000  1.0
  C  C10  1  0.49998000  0.84053000  0.50000000  1.0
  C  C11  1  0.06429000  0.49966000  0.50000000  1.0
  C  C12  1  0.93568000  0.49967000  0.50000000  1.0
  C  C13  1  0.49994000  0.28162000  0.50000000  1.0
  C  C14  1  0.61860000  0.55500000  0.04866000  1.0
  C  C15  1  0.38736000  0.56392000  0.04866000  1.0
  C  C16  1  0.61860000  0.55500000  0.95134000  1.0
  C  C17  1  0.49991000  0.49772000  0.75151000  1.0
  C  C18  1  0.38736000  0.56392000  0.95134000  1.0
  C  C19  1  0.49999000  0.05719000  0.50000000  1.0
  C  C20  1  0.50000000  0.16019000  0.50000000  1.0
  C  C21  1  0.49991000  0.49771000  0.24850000  1.0
  C  C22  1  0.49984000  0.49390000  0.08321000  1.0
  C  C23  1  0.49984000  0.49390000  0.91679000  1.0
  C  C24  1  0.49394000  0.37133000  0.95076000  1.0
  C  C25  1  0.49393000  0.37133000  0.04924000  1.0
  C  C26  1  0.49980000  0.49454000  0.82679000  1.0
  C  C27  1  0.49979000  0.49454000  0.17322000  1.0
  N  N28  1  0.17342000  0.49996000  0.50000000  1.0
  N  N29  1  0.82655000  0.49995000  0.50000000  1.0
  O  O30  1  0.60736000  0.67141000  0.50000000  1.0
  O  O31  1  0.39262000  0.67139000  0.50000000  1.0
  O  O32  1  0.60726000  0.50041000  0.37357000  1.0
  O  O33  1  0.39270000  0.50027000  0.37360000  1.0
  O  O34  1  0.60726000  0.50041000  0.62643000  1.0
  O  O35  1  0.39270000  0.50027000  0.62640000  1.0
  O  O36  1  0.60728000  0.32935000  0.50000000  1.0
  O  O37  1  0.39256000  0.32926000  0.50000000  1.0
  F  F38  1  0.59449000  0.31080000  0.07760000  1.0
  F  F39  1  0.38796000  0.31878000  0.07761000  1.0
  F  F40  1  0.59450000  0.31080000  0.92240000  1.0
  F  F41  1  0.38797000  0.31878000  0.92239000  1.0
  F  F42  1  0.27385000  0.52418000  0.07864000  1.0
  F  F43  1  0.72787000  0.50669000  0.07868000  1.0
  F  F44  1  0.27385000  0.52418000  0.92136000  1.0
  F  F45  1  0.72787000  0.50669000  0.92132000  1.0
