# generated using pymatgen
data_AlH10(C7O3)2
_symmetry_space_group_name_H-M   'P 1'
_cell_length_a   6.67312000
_cell_length_b   19.25610000
_cell_length_c   20.13880000
_cell_angle_alpha   98.72230000
_cell_angle_beta   89.99810000
_cell_angle_gamma   89.99800000
_symmetry_Int_Tables_number   1
_chemical_formula_structural   AlH10(C7O3)2
_chemical_formula_sum   'Al4 H40 C56 O24'
_cell_volume   2557.87280391
_cell_formula_units_Z   4
loop_
 _symmetry_equiv_pos_site_id
 _symmetry_equiv_pos_as_xyz
  1  'x, y, z'
loop_
 _atom_site_type_symbol
 _atom_site_label
 _atom_site_symmetry_multiplicity
 _atom_site_fract_x
 _atom_site_fract_y
 _atom_site_fract_z
 _atom_site_occupancy
  Al  Al0  1  0.20334000  0.74967000  0.75016000  1.0
  Al  Al1  1  0.78710000  0.24920000  0.24868000  1.0
  Al  Al2  1  0.70334000  0.75034000  0.74984000  1.0
  Al  Al3  1  0.28710000  0.25080000  0.25131000  1.0
  H  H4  1  0.17554000  0.89884000  0.46771000  1.0
  H  H5  1  0.71006000  0.06462000  0.49545000  1.0
  H  H6  1  0.67548000  0.60116000  0.03229000  1.0
  H  H7  1  0.21005000  0.43537000  0.00455000  1.0
  H  H8  1  0.15808000  0.81275000  0.54673000  1.0
  H  H9  1  0.72005000  0.14502000  0.40983000  1.0
  H  H10  1  0.65802000  0.68726000  0.95326000  1.0
  H  H11  1  0.22007000  0.35498000  0.09017000  1.0
  H  H12  1  0.77060000  0.95364000  0.67512000  1.0
  H  H13  1  0.33753000  0.09221000  0.37015000  1.0
  H  H14  1  0.27060000  0.54635000  0.82487000  1.0
  H  H15  1  0.83755000  0.40780000  0.12985000  1.0
  H  H16  1  0.24382000  0.93423000  0.89607000  1.0
  H  H17  1  0.75429000  0.06680000  0.10239000  1.0
  H  H18  1  0.74382000  0.56577000  0.60393000  1.0
  H  H19  1  0.25427000  0.43319000  0.39764000  1.0
  H  H20  1  0.64021000  0.86983000  0.92931000  1.0
  H  H21  1  0.35686000  0.13248000  0.06892000  1.0
  H  H22  1  0.14023000  0.63018000  0.57069000  1.0
  H  H23  1  0.85687000  0.36749000  0.43107000  1.0
  H  H24  1  0.38881000  0.03860000  0.96958000  1.0
  H  H25  1  0.61031000  0.96270000  0.02985000  1.0
  H  H26  1  0.88881000  0.46138000  0.53042000  1.0
  H  H27  1  0.11030000  0.53730000  0.47017000  1.0
  H  H28  1  0.04349000  0.11945000  0.60048000  1.0
  H  H29  1  0.98965000  0.09922000  0.68298000  1.0
  H  H30  1  0.83134000  0.15890000  0.64638000  1.0
  H  H31  1  0.55157000  0.00908000  0.37536000  1.0
  H  H32  1  0.38155000  0.93578000  0.36461000  1.0
  H  H33  1  0.59162000  0.93795000  0.42113000  1.0
  H  H34  1  0.54350000  0.38055000  0.89951000  1.0
  H  H35  1  0.48965000  0.40079000  0.81701000  1.0
  H  H36  1  0.33135000  0.34110000  0.85361000  1.0
  H  H37  1  0.05156000  0.49091000  0.12463000  1.0
  H  H38  1  0.88154000  0.56422000  0.13540000  1.0
  H  H39  1  0.09160000  0.56205000  0.07887000  1.0
  H  H40  1  0.45224000  0.83277000  0.72688000  1.0
  H  H41  1  0.53350000  0.15758000  0.23105000  1.0
  H  H42  1  0.95224000  0.66724000  0.77312000  1.0
  H  H43  1  0.03349000  0.34242000  0.26897000  1.0
  C  C44  1  0.45326000  0.65733000  0.65368000  1.0
  C  C45  1  0.54045000  0.34019000  0.34839000  1.0
  C  C46  1  0.95326000  0.84268000  0.84632000  1.0
  C  C47  1  0.04046000  0.15980000  0.15162000  1.0
  C  C48  1  0.45438000  0.67346000  0.83493000  1.0
  C  C49  1  0.53572000  0.32958000  0.16733000  1.0
  C  C50  1  0.95445000  0.82654000  0.66507000  1.0
  C  C51  1  0.03568000  0.17042000  0.33266000  1.0
  C  C52  1  0.09077000  0.91177000  0.51402000  1.0
  C  C53  1  0.84789000  0.07034000  0.46791000  1.0
  C  C54  1  0.59071000  0.58823000  0.98598000  1.0
  C  C55  1  0.34790000  0.42965000  0.03209000  1.0
  C  C56  1  0.07878000  0.86266000  0.55774000  1.0
  C  C57  1  0.85260000  0.11538000  0.42019000  1.0
  C  C58  1  0.57872000  0.63734000  0.94226000  1.0
  C  C59  1  0.35261000  0.38462000  0.07981000  1.0
  C  C60  1  0.96205000  0.87704000  0.61594000  1.0
  C  C61  1  0.02969000  0.12287000  0.38459000  1.0
  C  C62  1  0.46201000  0.62297000  0.88406000  1.0
  C  C63  1  0.52968000  0.37713000  0.11541000  1.0
  C  C64  1  0.86214000  0.94126000  0.63003000  1.0
  C  C65  1  0.19992000  0.08465000  0.39724000  1.0
  C  C66  1  0.36212000  0.55874000  0.86996000  1.0
  C  C67  1  0.69990000  0.41536000  0.10275000  1.0
  C  C68  1  0.88536000  0.99215000  0.58817000  1.0
  C  C69  1  0.19313000  0.03791000  0.44385000  1.0
  C  C70  1  0.38534000  0.50785000  0.91183000  1.0
  C  C71  1  0.69312000  0.46211000  0.05614000  1.0
  C  C72  1  0.99876000  0.97832000  0.52814000  1.0
  C  C73  1  0.01518000  0.02967000  0.48053000  1.0
  C  C74  1  0.49873000  0.52169000  0.97187000  1.0
  C  C75  1  0.51518000  0.47034000  0.01947000  1.0
  C  C76  1  0.94450000  0.89743000  0.90732000  1.0
  C  C77  1  0.05294000  0.10439000  0.09139000  1.0
  C  C78  1  0.44452000  0.60257000  0.59267000  1.0
  C  C79  1  0.55291000  0.39559000  0.40862000  1.0
  C  C80  1  0.25128000  0.04414000  0.99924000  1.0
  C  C81  1  0.74769000  0.95707000  0.00009000  1.0
  C  C82  1  0.75127000  0.45585000  0.50076000  1.0
  C  C83  1  0.24767000  0.54293000  0.49993000  1.0
  C  C84  1  0.23404000  0.09623000  0.05381000  1.0
  C  C85  1  0.76391000  0.90546000  0.94514000  1.0
  C  C86  1  0.73402000  0.40375000  0.44620000  1.0
  C  C87  1  0.26391000  0.59455000  0.55487000  1.0
  C  C88  1  0.89299000  0.05973000  0.07346000  1.0
  C  C89  1  0.10575000  0.94147000  0.92541000  1.0
  C  C90  1  0.39298000  0.44025000  0.42656000  1.0
  C  C91  1  0.60575000  0.55853000  0.57459000  1.0
  C  C92  1  0.90827000  0.00451000  0.01870000  1.0
  C  C93  1  0.09117000  0.99644000  0.98052000  1.0
  C  C94  1  0.40827000  0.49548000  0.48132000  1.0
  C  C95  1  0.59118000  0.50355000  0.51949000  1.0
  C  C96  1  0.92307000  0.11127000  0.63591000  1.0
  C  C97  1  0.47676000  0.96960000  0.40082000  1.0
  C  C98  1  0.42307000  0.38873000  0.86409000  1.0
  C  C99  1  0.97675000  0.53040000  0.09917000  1.0
  O  O100  1  0.62284000  0.69541000  0.81695000  1.0
  O  O101  1  0.36693000  0.31153000  0.18883000  1.0
  O  O102  1  0.12289000  0.80457000  0.68303000  1.0
  O  O103  1  0.86691000  0.18849000  0.31118000  1.0
  O  O104  1  0.28399000  0.67876000  0.67768000  1.0
  O  O105  1  0.70745000  0.31736000  0.32342000  1.0
  O  O106  1  0.78394000  0.82124000  0.82233000  1.0
  O  O107  1  0.20749000  0.18265000  0.17657000  1.0
  O  O108  1  0.28365000  0.68970000  0.81362000  1.0
  O  O109  1  0.70723000  0.31156000  0.18695000  1.0
  O  O110  1  0.78368000  0.81032000  0.68640000  1.0
  O  O111  1  0.20722000  0.18844000  0.31304000  1.0
  O  O112  1  0.12472000  0.82299000  0.82256000  1.0
  O  O113  1  0.86770000  0.17930000  0.17438000  1.0
  O  O114  1  0.62476000  0.67702000  0.67742000  1.0
  O  O115  1  0.36768000  0.32069000  0.32564000  1.0
  O  O116  1  0.45298000  0.79272000  0.75087000  1.0
  O  O117  1  0.53644000  0.20774000  0.24595000  1.0
  O  O118  1  0.95297000  0.70729000  0.74913000  1.0
  O  O119  1  0.03644000  0.29226000  0.25405000  1.0
  O  O120  1  0.79018000  0.05586000  0.60770000  1.0
  O  O121  1  0.36001000  0.00050000  0.45747000  1.0
  O  O122  1  0.29018000  0.44413000  0.89230000  1.0
  O  O123  1  0.85997000  0.49951000  0.04253000  1.0
