# generated using pymatgen
data_CoH18C22(NO)4
_symmetry_space_group_name_H-M   'P 1'
_cell_length_a   11.76175040
_cell_length_b   11.76160000
_cell_length_c   13.63090000
_cell_angle_alpha   69.04500000
_cell_angle_beta   69.04506629
_cell_angle_gamma   60.03726803
_symmetry_Int_Tables_number   1
_chemical_formula_structural   CoH18C22(NO)4
_chemical_formula_sum   'Co2 H36 C44 N8 O8'
_cell_volume   1487.77908780
_cell_formula_units_Z   2
loop_
 _symmetry_equiv_pos_site_id
 _symmetry_equiv_pos_as_xyz
  1  'x, y, z'
loop_
 _atom_site_type_symbol
 _atom_site_label
 _atom_site_symmetry_multiplicity
 _atom_site_fract_x
 _atom_site_fract_y
 _atom_site_fract_z
 _atom_site_occupancy
  Co  Co0  1  0.02078000  0.97923000  0.74999000  1.0
  Co  Co1  1  0.97922000  0.02078000  0.25000000  1.0
  H  H2  1  0.45595000  0.82978000  0.66113000  1.0
  H  H3  1  0.17022000  0.54405000  0.83887000  1.0
  H  H4  1  0.54404000  0.17021000  0.33887000  1.0
  H  H5  1  0.82979000  0.45596000  0.16112000  1.0
  H  H6  1  0.69288000  0.78476000  0.55307000  1.0
  H  H7  1  0.21525000  0.30712000  0.94693000  1.0
  H  H8  1  0.30711000  0.21524000  0.44693000  1.0
  H  H9  1  0.78476000  0.69288000  0.05306000  1.0
  H  H10  1  0.79272000  0.03423000  0.96746000  1.0
  H  H11  1  0.96577000  0.20730000  0.53252000  1.0
  H  H12  1  0.20729000  0.96577000  0.03252000  1.0
  H  H13  1  0.03423000  0.79271000  0.46748000  1.0
  H  H14  1  0.06577000  0.20602000  0.78408000  1.0
  H  H15  1  0.79399000  0.93425000  0.71593000  1.0
  H  H16  1  0.93425000  0.79397000  0.21592000  1.0
  H  H17  1  0.20602000  0.06575000  0.28407000  1.0
  H  H18  1  0.90116000  0.33454000  0.95450000  1.0
  H  H19  1  0.66546000  0.09884000  0.54551000  1.0
  H  H20  1  0.09885000  0.66545000  0.04551000  1.0
  H  H21  1  0.33455000  0.90115000  0.45449000  1.0
  H  H22  1  0.74470000  0.24337000  0.13933000  1.0
  H  H23  1  0.75662000  0.25531000  0.36068000  1.0
  H  H24  1  0.25531000  0.75663000  0.86066000  1.0
  H  H25  1  0.24337000  0.74469000  0.63934000  1.0
  H  H26  1  0.66701000  0.16096000  0.11750000  1.0
  H  H27  1  0.83902000  0.33300000  0.38249000  1.0
  H  H28  1  0.33299000  0.83903000  0.88250000  1.0
  H  H29  1  0.16097000  0.66700000  0.61751000  1.0
  H  H30  1  0.67348000  0.48736000  0.07167000  1.0
  H  H31  1  0.51263000  0.32652000  0.42834000  1.0
  H  H32  1  0.32653000  0.51263000  0.92834000  1.0
  H  H33  1  0.48737000  0.67347000  0.57166000  1.0
  H  H34  1  0.50415000  0.70976000  0.99914000  1.0
  H  H35  1  0.29023000  0.49586000  0.50086000  1.0
  H  H36  1  0.49586000  0.29023000  0.00086000  1.0
  H  H37  1  0.70977000  0.50415000  0.49914000  1.0
  C  C38  1  0.22613000  0.05095000  0.61978000  1.0
  C  C39  1  0.94905000  0.77387000  0.88021000  1.0
  C  C40  1  0.77385000  0.94905000  0.38022000  1.0
  C  C41  1  0.05095000  0.22614000  0.11978000  1.0
  C  C42  1  0.36825000  0.02506000  0.55990000  1.0
  C  C43  1  0.97494000  0.63176000  0.94009000  1.0
  C  C44  1  0.63173000  0.97496000  0.44008000  1.0
  C  C45  1  0.02505000  0.36826000  0.05991000  1.0
  C  C46  1  0.47652000  0.90358000  0.59025000  1.0
  C  C47  1  0.09642000  0.52347000  0.90975000  1.0
  C  C48  1  0.52345000  0.09642000  0.40975000  1.0
  C  C49  1  0.90358000  0.47654000  0.09024000  1.0
  C  C50  1  0.60735000  0.87841000  0.53070000  1.0
  C  C51  1  0.12159000  0.39265000  0.96930000  1.0
  C  C52  1  0.39266000  0.12158000  0.46929000  1.0
  C  C53  1  0.87841000  0.60735000  0.03070000  1.0
  C  C54  1  0.84515000  0.09774000  0.94122000  1.0
  C  C55  1  0.90226000  0.15486000  0.55878000  1.0
  C  C56  1  0.15485000  0.90226000  0.05878000  1.0
  C  C57  1  0.09773000  0.84515000  0.44122000  1.0
  C  C58  1  0.98555000  0.18908000  0.84881000  1.0
  C  C59  1  0.81094000  0.01444000  0.65119000  1.0
  C  C60  1  0.01445000  0.81093000  0.15119000  1.0
  C  C61  1  0.18907000  0.98555000  0.34881000  1.0
  C  C62  1  0.90452000  0.25357000  0.93167000  1.0
  C  C63  1  0.74644000  0.09548000  0.56834000  1.0
  C  C64  1  0.09548000  0.74642000  0.06834000  1.0
  C  C65  1  0.25357000  0.90451000  0.43166000  1.0
  C  C66  1  0.70460000  0.23890000  0.08012000  1.0
  C  C67  1  0.76110000  0.29540000  0.41988000  1.0
  C  C68  1  0.29541000  0.76110000  0.91988000  1.0
  C  C69  1  0.23890000  0.70460000  0.58011000  1.0
  C  C70  1  0.59594000  0.37377000  0.04179000  1.0
  C  C71  1  0.62622000  0.40406000  0.45821000  1.0
  C  C72  1  0.40406000  0.62622000  0.95822000  1.0
  C  C73  1  0.37378000  0.59595000  0.54179000  1.0
  C  C74  1  0.59693000  0.49281000  0.04063000  1.0
  C  C75  1  0.50719000  0.40307000  0.45936000  1.0
  C  C76  1  0.40308000  0.50718000  0.95937000  1.0
  C  C77  1  0.49281000  0.59694000  0.54063000  1.0
  C  C78  1  0.50209000  0.61788000  0.99919000  1.0
  C  C79  1  0.38212000  0.49791000  0.50082000  1.0
  C  C80  1  0.49790000  0.38212000  0.00082000  1.0
  C  C81  1  0.61787000  0.50210000  0.49919000  1.0
  N  N82  1  0.94741000  0.09209000  0.85545000  1.0
  N  N83  1  0.90792000  0.05259000  0.64455000  1.0
  N  N84  1  0.05259000  0.90791000  0.14455000  1.0
  N  N85  1  0.09208000  0.94740000  0.35546000  1.0
  N  N86  1  0.81699000  0.19427000  0.98942000  1.0
  N  N87  1  0.80573000  0.18301000  0.51058000  1.0
  N  N88  1  0.18301000  0.80573000  0.01058000  1.0
  N  N89  1  0.19427000  0.81698000  0.48942000  1.0
  O  O90  1  0.20944000  0.94538000  0.68512000  1.0
  O  O91  1  0.05462000  0.79057000  0.81488000  1.0
  O  O92  1  0.79056000  0.05461000  0.31488000  1.0
  O  O93  1  0.94538000  0.20945000  0.18512000  1.0
  O  O94  1  0.13246000  0.16611000  0.60437000  1.0
  O  O95  1  0.83389000  0.86755000  0.89562000  1.0
  O  O96  1  0.86753000  0.83388000  0.39563000  1.0
  O  O97  1  0.16612000  0.13245000  0.10437000  1.0
