# generated using pymatgen
data_Zn4H12C18O13
_symmetry_space_group_name_H-M   'P 1'
_cell_length_a   15.30780000
_cell_length_b   17.03520000
_cell_length_c   19.59739058
_cell_angle_alpha   72.23852128
_cell_angle_beta   69.61908848
_cell_angle_gamma   66.86430000
_symmetry_Int_Tables_number   1
_chemical_formula_structural   Zn4H12C18O13
_chemical_formula_sum   'Zn8 H24 C36 O26'
_cell_volume   4320.55087862
_cell_formula_units_Z   2
loop_
 _symmetry_equiv_pos_site_id
 _symmetry_equiv_pos_as_xyz
  1  'x, y, z'
loop_
 _atom_site_type_symbol
 _atom_site_label
 _atom_site_symmetry_multiplicity
 _atom_site_fract_x
 _atom_site_fract_y
 _atom_site_fract_z
 _atom_site_occupancy
  Zn  Zn0  1  0.94003000  0.99675000  0.10805000  1.0
  Zn  Zn1  1  0.93981000  0.14397000  0.95667000  1.0
  Zn  Zn2  1  0.90836000  0.96555000  0.96702000  1.0
  Zn  Zn3  1  0.11741000  0.96237000  0.96138000  1.0
  Zn  Zn4  1  0.50916000  0.54704000  0.39047000  1.0
  Zn  Zn5  1  0.51284000  0.39573000  0.53948000  1.0
  Zn  Zn6  1  0.33472000  0.57687000  0.53937000  1.0
  Zn  Zn7  1  0.54471000  0.57301000  0.53203000  1.0
  H  H8  1  0.77219000  0.32216000  0.11751000  1.0
  H  H9  1  0.77176000  0.17236000  0.25459000  1.0
  H  H10  1  0.67672000  0.37515000  0.23824000  1.0
  H  H11  1  0.67752000  0.22391000  0.37422000  1.0
  H  H12  1  0.69317000  0.84795000  0.13474000  1.0
  H  H13  1  0.80317000  0.80682000  0.25343000  1.0
  H  H14  1  0.64484000  0.73804000  0.24626000  1.0
  H  H15  1  0.75545000  0.69619000  0.36471000  1.0
  H  H16  1  0.26990000  0.76709000  0.12709000  1.0
  H  H17  1  0.12404000  0.85166000  0.25981000  1.0
  H  H18  1  0.32176000  0.69564000  0.24415000  1.0
  H  H19  1  0.17745000  0.77843000  0.37815000  1.0
  H  H20  1  0.80474000  0.11589000  0.76519000  1.0
  H  H21  1  0.74982000  0.29224000  0.80866000  1.0
  H  H22  1  0.70912000  0.24151000  0.68424000  1.0
  H  H23  1  0.65494000  0.41669000  0.72948000  1.0
  H  H24  1  0.29628000  0.12746000  0.80999000  1.0
  H  H25  1  0.11441000  0.28747000  0.78726000  1.0
  H  H26  1  0.33995000  0.24943000  0.70931000  1.0
  H  H27  1  0.15770000  0.40931000  0.68720000  1.0
  H  H28  1  0.08018000  0.75534000  0.84048000  1.0
  H  H29  1  0.25117000  0.83204000  0.77877000  1.0
  H  H30  1  0.20441000  0.69882000  0.72761000  1.0
  H  H31  1  0.37447000  0.77671000  0.66580000  1.0
  C  C32  1  0.84760000  0.18593000  0.10703000  1.0
  C  C33  1  0.78807000  0.25598000  0.15009000  1.0
  C  C34  1  0.75384000  0.24007000  0.22488000  1.0
  C  C35  1  0.69487000  0.30731000  0.26764000  1.0
  C  C36  1  0.66111000  0.29048000  0.34244000  1.0
  C  C37  1  0.60174000  0.35925000  0.38686000  1.0
  C  C38  1  0.80419000  0.90720000  0.11763000  1.0
  C  C39  1  0.74266000  0.85124000  0.16182000  1.0
  C  C40  1  0.75127000  0.80211000  0.22929000  1.0
  C  C41  1  0.69673000  0.74273000  0.27042000  1.0
  C  C42  1  0.70578000  0.69312000  0.33768000  1.0
  C  C43  1  0.64497000  0.63645000  0.38154000  1.0
  C  C44  1  0.13890000  0.87804000  0.11320000  1.0
  C  C45  1  0.20502000  0.81144000  0.15780000  1.0
  C  C46  1  0.18962000  0.80556000  0.23116000  1.0
  C  C47  1  0.25634000  0.74155000  0.27313000  1.0
  C  C48  1  0.24183000  0.73463000  0.34652000  1.0
  C  C49  1  0.30905000  0.66685000  0.38971000  1.0
  C  C50  1  0.84403000  0.12439000  0.85897000  1.0
  C  C51  1  0.80035000  0.16245000  0.79509000  1.0
  C  C52  1  0.75329000  0.24837000  0.77635000  1.0
  C  C53  1  0.70595000  0.28505000  0.71673000  1.0
  C  C54  1  0.65863000  0.37110000  0.69892000  1.0
  C  C55  1  0.61312000  0.41089000  0.63603000  1.0
  C  C56  1  0.14777000  0.12852000  0.87553000  1.0
  C  C57  1  0.21938000  0.16853000  0.81837000  1.0
  C  C58  1  0.19260000  0.24930000  0.77695000  1.0
  C  C59  1  0.26174000  0.28753000  0.71970000  1.0
  C  C60  1  0.23469000  0.36846000  0.67858000  1.0
  C  C61  1  0.30591000  0.40921000  0.62179000  1.0
  C  C62  1  0.08678000  0.85223000  0.88888000  1.0
  C  C63  1  0.12556000  0.79365000  0.83563000  1.0
  C  C64  1  0.20955000  0.79137000  0.78109000  1.0
  C  C65  1  0.24596000  0.73949000  0.72542000  1.0
  C  C66  1  0.32941000  0.73818000  0.67047000  1.0
  C  C67  1  0.36742000  0.68158000  0.61572000  1.0
  O  O68  1  0.97587000  0.01919000  0.99943000  1.0
  O  O69  1  0.87062000  0.21136000  0.03639000  1.0
  O  O70  1  0.87061000  0.10741000  0.14302000  1.0
  O  O71  1  0.57973000  0.33198000  0.45729000  1.0
  O  O72  1  0.57796000  0.43838000  0.35224000  1.0
  O  O73  1  0.80263000  0.93489000  0.04927000  1.0
  O  O74  1  0.85431000  0.92241000  0.14947000  1.0
  O  O75  1  0.64792000  0.60733000  0.44955000  1.0
  O  O76  1  0.59417000  0.62198000  0.34979000  1.0
  O  O77  1  0.17197000  0.88106000  0.04304000  1.0
  O  O78  1  0.05654000  0.92642000  0.14672000  1.0
  O  O79  1  0.27782000  0.66214000  0.46013000  1.0
  O  O80  1  0.39063000  0.61905000  0.35476000  1.0
  O  O81  1  0.86703000  0.04137000  0.87831000  1.0
  O  O82  1  0.85446000  0.17514000  0.88987000  1.0
  O  O83  1  0.58986000  0.49399000  0.61831000  1.0
  O  O84  1  0.60131000  0.36156000  0.60450000  1.0
  O  O85  1  0.18448000  0.04886000  0.90519000  1.0
  O  O86  1  0.05705000  0.17505000  0.89030000  1.0
  O  O87  1  0.26869000  0.48905000  0.59283000  1.0
  O  O88  1  0.39681000  0.36316000  0.60667000  1.0
  O  O89  1  0.99984000  0.85808000  0.93098000  1.0
  O  O90  1  0.14109000  0.89361000  0.88829000  1.0
  O  O91  1  0.45333000  0.67776000  0.57244000  1.0
  O  O92  1  0.31341000  0.64010000  0.61595000  1.0
  O  O93  1  0.47598000  0.52110000  0.49907000  1.0
