# generated using pymatgen
data_ZnH8C10(NCl)2
_symmetry_space_group_name_H-M   'P 1'
_cell_length_a   3.63110000
_cell_length_b   11.39050000
_cell_length_c   11.74220000
_cell_angle_alpha   90.00050000
_cell_angle_beta   89.99980000
_cell_angle_gamma   89.99940000
_symmetry_Int_Tables_number   1
_chemical_formula_structural   ZnH8C10(NCl)2
_chemical_formula_sum   'Zn2 H16 C20 N4 Cl4'
_cell_volume   485.65791507
_cell_formula_units_Z   2
loop_
 _symmetry_equiv_pos_site_id
 _symmetry_equiv_pos_as_xyz
  1  'x, y, z'
loop_
 _atom_site_type_symbol
 _atom_site_label
 _atom_site_symmetry_multiplicity
 _atom_site_fract_x
 _atom_site_fract_y
 _atom_site_fract_z
 _atom_site_occupancy
  Zn  Zn0  1  0.50000000  0.75000000  0.25000000  1.0
  Zn  Zn1  1  0.50001000  0.25000000  0.75000000  1.0
  H  H2  1  0.31965000  0.33453000  0.42598000  1.0
  H  H3  1  0.31966000  0.16547000  0.07402000  1.0
  H  H4  1  0.68039000  0.16547000  0.42597000  1.0
  H  H5  1  0.68041000  0.33453000  0.07402000  1.0
  H  H6  1  0.68034000  0.66547000  0.57403000  1.0
  H  H7  1  0.68035000  0.83453000  0.92598000  1.0
  H  H8  1  0.31960000  0.83453000  0.57403000  1.0
  H  H9  1  0.31960000  0.66547000  0.92597000  1.0
  H  H10  1  0.32715000  0.55299000  0.41744000  1.0
  H  H11  1  0.32716000  0.94701000  0.08257000  1.0
  H  H12  1  0.67284000  0.94701000  0.41744000  1.0
  H  H13  1  0.67286000  0.55299000  0.08256000  1.0
  H  H14  1  0.67285000  0.44701000  0.58257000  1.0
  H  H15  1  0.67287000  0.05299000  0.91743000  1.0
  H  H16  1  0.32717000  0.05299000  0.58256000  1.0
  H  H17  1  0.32714000  0.44701000  0.91744000  1.0
  C  C18  1  0.40421000  0.37860000  0.34777000  1.0
  C  C19  1  0.40422000  0.12139000  0.15224000  1.0
  C  C20  1  0.59583000  0.12139000  0.34777000  1.0
  C  C21  1  0.59585000  0.37862000  0.15223000  1.0
  C  C22  1  0.59578000  0.62139000  0.65224000  1.0
  C  C23  1  0.59579000  0.87861000  0.84776000  1.0
  C  C24  1  0.40415000  0.87861000  0.65223000  1.0
  C  C25  1  0.40415000  0.62139000  0.84777000  1.0
  C  C26  1  0.40654000  0.50047000  0.34391000  1.0
  C  C27  1  0.40652000  0.99953000  0.15609000  1.0
  C  C28  1  0.59349000  0.99952000  0.34391000  1.0
  C  C29  1  0.59349000  0.50047000  0.15609000  1.0
  C  C30  1  0.59348000  0.49953000  0.65609000  1.0
  C  C31  1  0.59348000  0.00047000  0.84391000  1.0
  C  C32  1  0.40652000  0.00047000  0.65608000  1.0
  C  C33  1  0.40649000  0.49953000  0.84392000  1.0
  C  C34  1  0.50004000  0.31479000  0.25000000  1.0
  C  C35  1  0.50003000  0.18521000  0.25000000  1.0
  C  C36  1  0.49995000  0.68521000  0.75001000  1.0
  C  C37  1  0.49995000  0.81479000  0.75000000  1.0
  N  N38  1  0.50001000  0.56124000  0.25000000  1.0
  N  N39  1  0.50000000  0.93876000  0.25000000  1.0
  N  N40  1  0.49999000  0.43876000  0.75001000  1.0
  N  N41  1  0.50000000  0.06124000  0.74999000  1.0
  Cl  Cl42  1  0.99999000  0.75000000  0.39856000  1.0
  Cl  Cl43  1  0.00000000  0.75000000  0.10145000  1.0
  Cl  Cl44  1  0.00001000  0.25000000  0.60144000  1.0
  Cl  Cl45  1  0.00001000  0.25000000  0.89855000  1.0
