# generated using pymatgen
data_AgH6C11NF4
_symmetry_space_group_name_H-M   'P 1'
_cell_length_a   10.20480000
_cell_length_b   10.49500000
_cell_length_c   10.88980000
_cell_angle_alpha   75.60030000
_cell_angle_beta   69.75490000
_cell_angle_gamma   86.00620000
_symmetry_Int_Tables_number   1
_chemical_formula_structural   AgH6C11NF4
_chemical_formula_sum   'Ag4 H24 C44 N4 F16'
_cell_volume   1059.68961650
_cell_formula_units_Z   4
loop_
 _symmetry_equiv_pos_site_id
 _symmetry_equiv_pos_as_xyz
  1  'x, y, z'
loop_
 _atom_site_type_symbol
 _atom_site_label
 _atom_site_symmetry_multiplicity
 _atom_site_fract_x
 _atom_site_fract_y
 _atom_site_fract_z
 _atom_site_occupancy
  Ag  Ag0  1  0.50000000  0.50000000  0.00000000  1.0
  Ag  Ag1  1  0.57095000  0.73304000  0.04314000  1.0
  Ag  Ag2  1  0.42905000  0.26696000  0.95686000  1.0
  Ag  Ag3  1  0.50000000  0.00000000  0.00000000  1.0
  H  H4  1  0.98137000  0.81148000  0.12578000  1.0
  H  H5  1  0.01863000  0.18851000  0.87422000  1.0
  H  H6  1  0.55534000  0.85041000  0.54884000  1.0
  H  H7  1  0.44466000  0.14959000  0.45116000  1.0
  H  H8  1  0.53482000  0.63660000  0.35037000  1.0
  H  H9  1  0.46518000  0.36340000  0.64963000  1.0
  H  H10  1  0.65261000  0.51630000  0.51129000  1.0
  H  H11  1  0.34739000  0.48371000  0.48871000  1.0
  H  H12  1  0.87497000  0.39897000  0.42216000  1.0
  H  H13  1  0.12503000  0.60103000  0.57784000  1.0
  H  H14  1  0.96948000  0.40635000  0.17462000  1.0
  H  H15  1  0.03052000  0.59365000  0.82538000  1.0
  H  H16  1  0.84070000  0.53553000  0.02637000  1.0
  H  H17  1  0.15930000  0.46447000  0.97363000  1.0
  H  H18  1  0.85791000  0.90386000  0.88186000  1.0
  H  H19  1  0.14209000  0.09615000  0.11813000  1.0
  H  H20  1  0.05392000  0.94302000  0.66150000  1.0
  H  H21  1  0.94609000  0.05698000  0.33850000  1.0
  H  H22  1  0.04181000  0.83634000  0.48320000  1.0
  H  H23  1  0.95819000  0.16366000  0.51680000  1.0
  H  H24  1  0.83359000  0.69135000  0.53607000  1.0
  H  H25  1  0.16641000  0.30865000  0.46393000  1.0
  H  H26  1  0.64611000  0.66300000  0.76158000  1.0
  H  H27  1  0.35389000  0.33700000  0.23842000  1.0
  C  C28  1  0.35445000  0.65148000  0.04848000  1.0
  C  C29  1  0.64555000  0.34852000  0.95152000  1.0
  C  C30  1  0.30682000  0.72454000  0.94670000  1.0
  C  C31  1  0.69318000  0.27546000  0.05330000  1.0
  C  C32  1  0.17490000  0.77983000  0.97286000  1.0
  C  C33  1  0.82510000  0.22017000  0.02714000  1.0
  C  C34  1  0.08365000  0.76656000  0.10445000  1.0
  C  C35  1  0.91635000  0.23343000  0.89556000  1.0
  C  C36  1  0.12854000  0.69429000  0.20748000  1.0
  C  C37  1  0.87146000  0.30570000  0.79252000  1.0
  C  C38  1  0.26023000  0.63881000  0.17910000  1.0
  C  C39  1  0.73977000  0.36119000  0.82091000  1.0
  C  C40  1  0.52753000  0.90300000  0.18596000  1.0
  C  C41  1  0.47247000  0.09700000  0.81404000  1.0
  C  C42  1  0.41085000  0.88102000  0.30354000  1.0
  C  C43  1  0.58915000  0.11898000  0.69646000  1.0
  C  C44  1  0.41950000  0.86268000  0.43189000  1.0
  C  C45  1  0.58050000  0.13732000  0.56811000  1.0
  C  C46  1  0.54822000  0.86468000  0.44895000  1.0
  C  C47  1  0.45178000  0.13532000  0.55105000  1.0
  C  C48  1  0.66627000  0.88603000  0.33346000  1.0
  C  C49  1  0.33373000  0.11397000  0.66654000  1.0
  C  C50  1  0.65459000  0.90398000  0.20672000  1.0
  C  C51  1  0.34541000  0.09602000  0.79328000  1.0
  C  C52  1  0.63211000  0.58512000  0.31534000  1.0
  C  C53  1  0.36789000  0.41488000  0.68466000  1.0
  C  C54  1  0.69769000  0.51762000  0.40464000  1.0
  C  C55  1  0.30231000  0.48238000  0.59536000  1.0
  C  C56  1  0.82139000  0.45272000  0.35476000  1.0
  C  C57  1  0.17861000  0.54728000  0.64524000  1.0
  C  C58  1  0.87448000  0.45777000  0.21717000  1.0
  C  C59  1  0.12552000  0.54223000  0.78283000  1.0
  C  C60  1  0.80298000  0.52891000  0.13461000  1.0
  C  C61  1  0.19702000  0.47109000  0.86539000  1.0
  C  C62  1  0.85652000  0.85871000  0.80249000  1.0
  C  C63  1  0.14348000  0.14129000  0.19751000  1.0
  C  C64  1  0.96522000  0.88079000  0.67901000  1.0
  C  C65  1  0.03478000  0.11921000  0.32099000  1.0
  C  C66  1  0.95835000  0.82100000  0.58060000  1.0
  C  C67  1  0.04166000  0.17901000  0.41940000  1.0
  C  C68  1  0.84292000  0.74056000  0.60968000  1.0
  C  C69  1  0.15709000  0.25945000  0.39032000  1.0
  C  C70  1  0.73853000  0.72427000  0.73523000  1.0
  C  C71  1  0.26147000  0.27573000  0.26477000  1.0
  N  N72  1  0.68387000  0.59214000  0.18218000  1.0
  N  N73  1  0.31613000  0.40786000  0.81782000  1.0
  N  N74  1  0.74462000  0.78180000  0.83089000  1.0
  N  N75  1  0.25538000  0.21821000  0.16911000  1.0
  F  F76  1  0.30071000  0.84389000  0.54181000  1.0
  F  F77  1  0.69929000  0.15611000  0.45819000  1.0
  F  F78  1  0.77734000  0.92005000  0.09865000  1.0
  F  F79  1  0.22266000  0.07995000  0.90135000  1.0
  F  F80  1  0.79523000  0.88662000  0.34448000  1.0
  F  F81  1  0.20477000  0.11338000  0.65552000  1.0
  F  F82  1  0.13385000  0.84634000  0.86848000  1.0
  F  F83  1  0.86615000  0.15365000  0.13153000  1.0
  F  F84  1  0.29652000  0.56938000  0.28733000  1.0
  F  F85  1  0.70348000  0.43062000  0.71267000  1.0
  F  F86  1  0.27975000  0.87857000  0.29595000  1.0
  F  F87  1  0.72025000  0.12143000  0.70405000  1.0
  F  F88  1  0.39056000  0.74185000  0.81423000  1.0
  F  F89  1  0.60944000  0.25815000  0.18577000  1.0
  F  F90  1  0.04257000  0.67735000  0.33822000  1.0
  F  F91  1  0.95743000  0.32264000  0.66178000  1.0
