# generated using pymatgen
data_CdH14C20(NO)4
_symmetry_space_group_name_H-M   'P 1'
_cell_length_a   11.21730000
_cell_length_b   16.09440000
_cell_length_c   16.28150000
_cell_angle_alpha   90.00000000
_cell_angle_beta   90.00010000
_cell_angle_gamma   89.99970000
_symmetry_Int_Tables_number   1
_chemical_formula_structural   CdH14C20(NO)4
_chemical_formula_sum   'Cd4 H56 C80 N16 O16'
_cell_volume   2939.39221312
_cell_formula_units_Z   4
loop_
 _symmetry_equiv_pos_site_id
 _symmetry_equiv_pos_as_xyz
  1  'x, y, z'
loop_
 _atom_site_type_symbol
 _atom_site_label
 _atom_site_symmetry_multiplicity
 _atom_site_fract_x
 _atom_site_fract_y
 _atom_site_fract_z
 _atom_site_occupancy
  Cd  Cd0  1  0.82494000  0.50000000  0.75000000  1.0
  Cd  Cd1  1  0.32494000  0.00000000  0.24999000  1.0
  Cd  Cd2  1  0.67506000  0.00000000  0.74999000  1.0
  Cd  Cd3  1  0.17506000  0.50000000  0.25000000  1.0
  H  H4  1  0.07529000  0.74741000  0.64666000  1.0
  H  H5  1  0.14494000  0.83149000  0.52871000  1.0
  H  H6  1  0.00593000  0.64566000  0.36215000  1.0
  H  H7  1  0.93497000  0.56418000  0.48102000  1.0
  H  H8  1  0.20811000  0.91021000  0.41801000  1.0
  H  H9  1  0.15508000  0.83573000  0.17315000  1.0
  H  H10  1  0.06910000  0.72095000  0.26146000  1.0
  H  H11  1  0.07529000  0.25259000  0.85334000  1.0
  H  H12  1  0.14494000  0.16851000  0.97128000  1.0
  H  H13  1  0.00592000  0.35434000  0.13785000  1.0
  H  H14  1  0.93497000  0.43582000  0.01899000  1.0
  H  H15  1  0.20811000  0.08979000  0.08198000  1.0
  H  H16  1  0.15508000  0.16427000  0.32685000  1.0
  H  H17  1  0.06910000  0.27905000  0.23854000  1.0
  H  H18  1  0.57529000  0.75259000  0.14666000  1.0
  H  H19  1  0.64494000  0.66851000  0.02871000  1.0
  H  H20  1  0.50593000  0.85434000  0.86215000  1.0
  H  H21  1  0.43497000  0.93582000  0.98101000  1.0
  H  H22  1  0.70811000  0.58979000  0.91802000  1.0
  H  H23  1  0.65508000  0.66427000  0.67315000  1.0
  H  H24  1  0.56911000  0.77905000  0.76146000  1.0
  H  H25  1  0.57529000  0.24740000  0.35333000  1.0
  H  H26  1  0.64494000  0.33148000  0.47129000  1.0
  H  H27  1  0.50592000  0.14565000  0.63785000  1.0
  H  H28  1  0.43496000  0.06418000  0.51899000  1.0
  H  H29  1  0.70810000  0.41020000  0.58199000  1.0
  H  H30  1  0.65507000  0.33573000  0.82686000  1.0
  H  H31  1  0.56910000  0.22095000  0.73854000  1.0
  H  H32  1  0.42471000  0.24740000  0.85334000  1.0
  H  H33  1  0.35505000  0.33148000  0.97129000  1.0
  H  H34  1  0.49408000  0.14566000  0.13785000  1.0
  H  H35  1  0.56503000  0.06418000  0.01899000  1.0
  H  H36  1  0.29189000  0.41021000  0.08199000  1.0
  H  H37  1  0.34493000  0.33573000  0.32685000  1.0
  H  H38  1  0.43089000  0.22095000  0.23854000  1.0
  H  H39  1  0.42471000  0.75259000  0.64666000  1.0
  H  H40  1  0.35506000  0.66852000  0.52871000  1.0
  H  H41  1  0.49407000  0.85434000  0.36215000  1.0
  H  H42  1  0.56503000  0.93582000  0.48101000  1.0
  H  H43  1  0.29189000  0.58980000  0.41801000  1.0
  H  H44  1  0.34492000  0.66427000  0.17314000  1.0
  H  H45  1  0.43090000  0.77905000  0.26146000  1.0
  H  H46  1  0.92471000  0.25260000  0.35334000  1.0
  H  H47  1  0.85506000  0.16852000  0.47129000  1.0
  H  H48  1  0.99408000  0.35434000  0.63785000  1.0
  H  H49  1  0.06504000  0.43582000  0.51899000  1.0
  H  H50  1  0.79190000  0.08979000  0.58199000  1.0
  H  H51  1  0.84492000  0.16427000  0.82685000  1.0
  H  H52  1  0.93090000  0.27905000  0.73854000  1.0
  H  H53  1  0.92471000  0.74741000  0.14666000  1.0
  H  H54  1  0.85505000  0.83149000  0.02872000  1.0
  H  H55  1  0.99406000  0.64566000  0.86215000  1.0
  H  H56  1  0.06502000  0.56418000  0.98101000  1.0
  H  H57  1  0.79189000  0.91021000  0.91801000  1.0
  H  H58  1  0.84493000  0.83573000  0.67315000  1.0
  H  H59  1  0.93090000  0.72095000  0.76146000  1.0
  C  C60  1  0.95009000  0.60256000  0.64182000  1.0
  C  C61  1  0.99787000  0.65131000  0.57127000  1.0
  C  C62  1  0.05862000  0.72650000  0.58402000  1.0
  C  C63  1  0.09781000  0.77332000  0.51770000  1.0
  C  C64  1  0.07781000  0.74611000  0.43649000  1.0
  C  C65  1  0.01989000  0.66958000  0.42406000  1.0
  C  C66  1  0.98026000  0.62319000  0.49065000  1.0
  C  C67  1  0.11795000  0.79686000  0.36802000  1.0
  C  C68  1  0.17715000  0.87255000  0.36714000  1.0
  C  C69  1  0.15266000  0.83673000  0.23975000  1.0
  C  C70  1  0.95009000  0.39745000  0.85819000  1.0
  C  C71  1  0.99787000  0.34870000  0.92873000  1.0
  C  C72  1  0.05863000  0.27351000  0.91598000  1.0
  C  C73  1  0.09781000  0.22669000  0.98230000  1.0
  C  C74  1  0.07781000  0.25390000  0.06351000  1.0
  C  C75  1  0.01989000  0.33042000  0.07595000  1.0
  C  C76  1  0.98027000  0.37681000  0.00935000  1.0
  C  C77  1  0.11795000  0.20314000  0.13198000  1.0
  C  C78  1  0.17715000  0.12745000  0.13286000  1.0
  C  C79  1  0.15266000  0.16327000  0.26024000  1.0
  C  C80  1  0.45009000  0.89745000  0.14181000  1.0
  C  C81  1  0.49788000  0.84869000  0.07127000  1.0
  C  C82  1  0.55863000  0.77351000  0.08402000  1.0
  C  C83  1  0.59780000  0.72668000  0.01770000  1.0
  C  C84  1  0.57781000  0.75389000  0.93648000  1.0
  C  C85  1  0.51989000  0.83042000  0.92405000  1.0
  C  C86  1  0.48027000  0.87681000  0.99065000  1.0
  C  C87  1  0.61795000  0.70314000  0.86802000  1.0
  C  C88  1  0.67715000  0.62744000  0.86714000  1.0
  C  C89  1  0.65266000  0.66326000  0.73976000  1.0
  C  C90  1  0.45009000  0.10255000  0.35819000  1.0
  C  C91  1  0.49787000  0.15130000  0.42873000  1.0
  C  C92  1  0.55863000  0.22649000  0.41598000  1.0
  C  C93  1  0.59780000  0.27331000  0.48230000  1.0
  C  C94  1  0.57781000  0.24610000  0.56351000  1.0
  C  C95  1  0.51989000  0.16958000  0.57595000  1.0
  C  C96  1  0.48026000  0.12319000  0.50935000  1.0
  C  C97  1  0.61795000  0.29686000  0.63198000  1.0
  C  C98  1  0.67715000  0.37255000  0.63286000  1.0
  C  C99  1  0.65265000  0.33673000  0.76024000  1.0
  C  C100  1  0.54992000  0.10255000  0.85819000  1.0
  C  C101  1  0.50213000  0.15130000  0.92873000  1.0
  C  C102  1  0.44137000  0.22649000  0.91598000  1.0
  C  C103  1  0.40219000  0.27331000  0.98230000  1.0
  C  C104  1  0.42219000  0.24611000  0.06351000  1.0
  C  C105  1  0.48011000  0.16958000  0.07595000  1.0
  C  C106  1  0.51974000  0.12319000  0.00935000  1.0
  C  C107  1  0.38205000  0.29686000  0.13198000  1.0
  C  C108  1  0.32285000  0.37255000  0.13286000  1.0
  C  C109  1  0.34734000  0.33673000  0.26024000  1.0
  C  C110  1  0.54991000  0.89745000  0.64181000  1.0
  C  C111  1  0.50213000  0.84869000  0.57127000  1.0
  C  C112  1  0.44137000  0.77351000  0.58402000  1.0
  C  C113  1  0.40219000  0.72669000  0.51770000  1.0
  C  C114  1  0.42219000  0.75390000  0.43649000  1.0
  C  C115  1  0.48011000  0.83042000  0.42405000  1.0
  C  C116  1  0.51973000  0.87681000  0.49065000  1.0
  C  C117  1  0.38205000  0.70314000  0.36802000  1.0
  C  C118  1  0.32285000  0.62745000  0.36714000  1.0
  C  C119  1  0.34734000  0.66327000  0.23975000  1.0
  C  C120  1  0.04992000  0.39745000  0.35819000  1.0
  C  C121  1  0.00214000  0.34869000  0.42874000  1.0
  C  C122  1  0.94138000  0.27351000  0.41598000  1.0
  C  C123  1  0.90220000  0.22669000  0.48230000  1.0
  C  C124  1  0.92219000  0.25389000  0.56352000  1.0
  C  C125  1  0.98011000  0.33042000  0.57595000  1.0
  C  C126  1  0.01974000  0.37681000  0.50935000  1.0
  C  C127  1  0.88205000  0.20314000  0.63198000  1.0
  C  C128  1  0.82286000  0.12745000  0.63286000  1.0
  C  C129  1  0.84734000  0.16327000  0.76025000  1.0
  C  C130  1  0.04991000  0.60255000  0.14181000  1.0
  C  C131  1  0.00212000  0.65131000  0.07127000  1.0
  C  C132  1  0.94137000  0.72650000  0.08403000  1.0
  C  C133  1  0.90219000  0.77332000  0.01770000  1.0
  C  C134  1  0.92219000  0.74611000  0.93649000  1.0
  C  C135  1  0.98010000  0.66958000  0.92406000  1.0
  C  C136  1  0.01973000  0.62319000  0.99065000  1.0
  C  C137  1  0.88205000  0.79686000  0.86802000  1.0
  C  C138  1  0.82286000  0.87256000  0.86714000  1.0
  C  C139  1  0.84735000  0.83674000  0.73976000  1.0
  N  N140  1  0.19789000  0.89639000  0.28741000  1.0
  N  N141  1  0.10352000  0.77601000  0.28590000  1.0
  N  N142  1  0.19788000  0.10361000  0.21258000  1.0
  N  N143  1  0.10353000  0.22399000  0.21410000  1.0
  N  N144  1  0.69788000  0.60361000  0.78741000  1.0
  N  N145  1  0.60353000  0.72399000  0.78590000  1.0
  N  N146  1  0.69788000  0.39639000  0.71259000  1.0
  N  N147  1  0.60353000  0.27600000  0.71410000  1.0
  N  N148  1  0.30211000  0.39639000  0.21259000  1.0
  N  N149  1  0.39648000  0.27601000  0.21410000  1.0
  N  N150  1  0.30211000  0.60361000  0.28741000  1.0
  N  N151  1  0.39647000  0.72400000  0.28590000  1.0
  N  N152  1  0.80212000  0.10361000  0.71259000  1.0
  N  N153  1  0.89648000  0.22399000  0.71410000  1.0
  N  N154  1  0.80212000  0.89639000  0.78741000  1.0
  N  N155  1  0.89648000  0.77601000  0.78590000  1.0
  O  O156  1  0.96466000  0.62826000  0.71531000  1.0
  O  O157  1  0.89293000  0.53545000  0.62523000  1.0
  O  O158  1  0.96465000  0.37175000  0.78469000  1.0
  O  O159  1  0.89293000  0.46456000  0.87477000  1.0
  O  O160  1  0.46465000  0.87174000  0.21531000  1.0
  O  O161  1  0.39293000  0.96456000  0.12522000  1.0
  O  O162  1  0.46465000  0.12825000  0.28469000  1.0
  O  O163  1  0.39292000  0.03544000  0.37478000  1.0
  O  O164  1  0.53535000  0.12826000  0.78469000  1.0
  O  O165  1  0.60708000  0.03544000  0.87477000  1.0
  O  O166  1  0.53535000  0.87174000  0.71531000  1.0
  O  O167  1  0.60707000  0.96456000  0.62522000  1.0
  O  O168  1  0.03535000  0.37174000  0.28469000  1.0
  O  O169  1  0.10709000  0.46456000  0.37478000  1.0
  O  O170  1  0.03535000  0.62825000  0.21531000  1.0
  O  O171  1  0.10708000  0.53544000  0.12522000  1.0
