# generated using pymatgen
data_Al2H22(C11O4)3
_symmetry_space_group_name_H-M   'P 1'
_cell_length_a   6.65342000
_cell_length_b   19.59700000
_cell_length_c   22.42530000
_cell_angle_alpha   83.71890000
_cell_angle_beta   86.07560000
_cell_angle_gamma   87.39140000
_symmetry_Int_Tables_number   1
_chemical_formula_structural   Al2H22(C11O4)3
_chemical_formula_sum   'Al4 H44 C66 O24'
_cell_volume   2897.46955580
_cell_formula_units_Z   2
loop_
 _symmetry_equiv_pos_site_id
 _symmetry_equiv_pos_as_xyz
  1  'x, y, z'
loop_
 _atom_site_type_symbol
 _atom_site_label
 _atom_site_symmetry_multiplicity
 _atom_site_fract_x
 _atom_site_fract_y
 _atom_site_fract_z
 _atom_site_occupancy
  Al  Al0  1  0.75528000  0.25193000  0.74968000  1.0
  Al  Al1  1  0.27364000  0.75319000  0.25305000  1.0
  Al  Al2  1  0.25594000  0.24908000  0.74855000  1.0
  Al  Al3  1  0.77476000  0.75342000  0.25075000  1.0
  H  H4  1  0.00746000  0.85248000  0.61158000  1.0
  H  H5  1  0.81632000  0.14599000  0.39584000  1.0
  H  H6  1  0.04244000  0.86838000  0.41464000  1.0
  H  H7  1  0.91555000  0.13644000  0.59284000  1.0
  H  H8  1  0.88662000  0.98500000  0.24951000  1.0
  H  H9  1  0.15982000  0.01590000  0.74405000  1.0
  H  H10  1  0.12637000  0.90952000  0.69405000  1.0
  H  H11  1  0.84034000  0.09084000  0.30249000  1.0
  H  H12  1  0.21316000  0.62655000  0.91101000  1.0
  H  H13  1  0.65234000  0.35874000  0.10887000  1.0
  H  H14  1  0.62947000  0.52150000  0.25149000  1.0
  H  H15  1  0.23326000  0.46115000  0.77083000  1.0
  H  H16  1  0.17152000  0.56571000  0.82499000  1.0
  H  H17  1  0.66230000  0.41525000  0.19890000  1.0
  H  H18  1  0.34368000  0.63309000  0.00993000  1.0
  H  H19  1  0.60581000  0.36129000  0.00128000  1.0
  H  H20  1  0.76412000  0.78449000  0.45803000  1.0
  H  H21  1  0.69127000  0.87323000  0.44778000  1.0
  H  H22  1  0.60488000  0.77807000  0.56379000  1.0
  H  H23  1  0.52825000  0.86610000  0.55134000  1.0
  H  H24  1  0.32794000  0.84200000  0.46560000  1.0
  H  H25  1  0.24554000  0.79048000  0.53154000  1.0
  H  H26  1  0.40453000  0.75381000  0.47579000  1.0
  H  H27  1  0.64411000  0.21090000  0.55940000  1.0
  H  H28  1  0.58562000  0.12243000  0.56364000  1.0
  H  H29  1  0.53027000  0.22790000  0.45365000  1.0
  H  H30  1  0.45797000  0.14127000  0.46103000  1.0
  H  H31  1  0.22001000  0.16398000  0.54997000  1.0
  H  H32  1  0.15593000  0.21706000  0.48481000  1.0
  H  H33  1  0.28476000  0.25145000  0.54107000  1.0
  H  H34  1  0.73451000  0.64166000  0.00865000  1.0
  H  H35  1  0.83022000  0.67277000  0.07269000  1.0
  H  H36  1  0.64231000  0.78572000  0.04976000  1.0
  H  H37  1  0.80585000  0.76643000  0.98738000  1.0
  H  H38  1  0.54218000  0.75472000  0.98646000  1.0
  H  H39  1  0.88983000  0.43268000  0.91115000  1.0
  H  H40  1  0.90654000  0.38368000  0.84781000  1.0
  H  H41  1  0.97053000  0.27583000  0.91935000  1.0
  H  H42  1  0.15954000  0.33737000  0.91914000  1.0
  H  H43  1  0.97152000  0.32788000  0.97959000  1.0
  H  H44  1  0.53347000  0.20526000  0.68641000  1.0
  H  H45  1  0.50507000  0.78677000  0.32187000  1.0
  H  H46  1  0.99218000  0.23865000  0.82780000  1.0
  H  H47  1  0.05174000  0.71355000  0.18573000  1.0
  C  C48  1  0.46969000  0.35200000  0.79974000  1.0
  C  C49  1  0.55546000  0.65139000  0.20097000  1.0
  C  C50  1  0.50333000  0.17066000  0.84033000  1.0
  C  C51  1  0.52181000  0.83631000  0.16454000  1.0
  C  C52  1  0.03424000  0.14648000  0.69989000  1.0
  C  C53  1  0.99222000  0.85663000  0.30016000  1.0
  C  C54  1  0.00738000  0.33121000  0.66104000  1.0
  C  C55  1  0.02064000  0.67167000  0.34094000  1.0
  C  C56  1  0.01651000  0.38247000  0.60984000  1.0
  C  C57  1  0.00989000  0.61876000  0.39097000  1.0
  C  C58  1  0.01554000  0.42752000  0.56733000  1.0
  C  C59  1  0.00909000  0.57301000  0.43295000  1.0
  C  C60  1  0.01321000  0.47709000  0.52110000  1.0
  C  C61  1  0.01011000  0.52300000  0.47883000  1.0
  C  C62  1  0.03305000  0.08187000  0.67068000  1.0
  C  C63  1  0.96956000  0.92101000  0.33001000  1.0
  C  C64  1  0.08399000  0.95985000  0.67159000  1.0
  C  C65  1  0.87815000  0.04125000  0.32706000  1.0
  C  C66  1  0.10099000  0.01837000  0.69964000  1.0
  C  C67  1  0.90694000  0.98326000  0.29748000  1.0
  C  C68  1  0.96155000  0.08628000  0.61367000  1.0
  C  C69  1  0.99132000  0.91686000  0.39126000  1.0
  C  C70  1  0.95926000  0.02831000  0.58136000  1.0
  C  C71  1  0.93783000  0.97349000  0.42410000  1.0
  C  C72  1  0.01410000  0.96326000  0.61297000  1.0
  C  C73  1  0.89173000  0.03769000  0.39017000  1.0
  C  C74  1  0.91569000  0.03127000  0.51843000  1.0
  C  C75  1  0.93253000  0.96971000  0.48907000  1.0
  C  C76  1  0.94479000  0.90502000  0.52675000  1.0
  C  C77  1  0.86586000  0.09439000  0.48186000  1.0
  C  C78  1  0.99123000  0.90257000  0.58557000  1.0
  C  C79  1  0.85467000  0.09676000  0.42083000  1.0
  C  C80  1  0.43771000  0.41252000  0.83462000  1.0
  C  C81  1  0.56565000  0.58717000  0.17042000  1.0
  C  C82  1  0.26649000  0.52264000  0.84321000  1.0
  C  C83  1  0.62398000  0.46487000  0.17449000  1.0
  C  C84  1  0.30263000  0.46574000  0.81276000  1.0
  C  C85  1  0.60698000  0.52339000  0.20363000  1.0
  C  C86  1  0.52561000  0.41545000  0.88921000  1.0
  C  C87  1  0.53919000  0.59166000  0.10909000  1.0
  C  C88  1  0.46878000  0.46955000  0.92582000  1.0
  C  C89  1  0.53917000  0.53147000  0.07855000  1.0
  C  C90  1  0.34744000  0.52569000  0.89958000  1.0
  C  C91  1  0.59257000  0.46778000  0.11247000  1.0
  C  C92  1  0.52109000  0.46986000  0.98772000  1.0
  C  C93  1  0.48543000  0.53076000  0.01691000  1.0
  C  C94  1  0.37756000  0.58767000  0.98674000  1.0
  C  C95  1  0.58677000  0.40843000  0.02263000  1.0
  C  C96  1  0.30567000  0.58408000  0.93155000  1.0
  C  C97  1  0.61347000  0.40720000  0.08262000  1.0
  C  C98  1  0.49705000  0.12039000  0.89223000  1.0
  C  C99  1  0.52665000  0.89031000  0.11538000  1.0
  C  C100  1  0.50073000  0.07701000  0.93596000  1.0
  C  C101  1  0.52126000  0.93582000  0.07332000  1.0
  C  C102  1  0.50658000  0.02915000  0.98339000  1.0
  C  C103  1  0.51411000  0.98471000  0.02670000  1.0
  C  C104  1  0.73226000  0.83064000  0.48149000  1.0
  C  C105  1  0.56045000  0.81903000  0.52906000  1.0
  C  C106  1  0.37445000  0.80011000  0.49915000  1.0
  C  C107  1  0.62998000  0.16773000  0.53262000  1.0
  C  C108  1  0.47493000  0.18565000  0.48619000  1.0
  C  C109  1  0.27292000  0.20596000  0.51698000  1.0
  C  C110  1  0.70308000  0.67735000  0.04320000  1.0
  C  C111  1  0.67033000  0.75034000  0.01520000  1.0
  C  C112  1  0.87051000  0.38156000  0.89660000  1.0
  C  C113  1  0.99984000  0.32741000  0.93082000  1.0
  O  O114  1  0.33513000  0.19746000  0.82396000  1.0
  O  O115  1  0.68925000  0.80604000  0.17727000  1.0
  O  O116  1  0.64343000  0.32268000  0.79480000  1.0
  O  O117  1  0.38460000  0.68244000  0.20671000  1.0
  O  O118  1  0.83310000  0.32166000  0.68675000  1.0
  O  O119  1  0.19692000  0.68346000  0.31745000  1.0
  O  O120  1  0.67851000  0.18327000  0.81618000  1.0
  O  O121  1  0.34791000  0.82416000  0.18954000  1.0
  O  O122  1  0.86820000  0.18179000  0.70165000  1.0
  O  O123  1  0.16097000  0.82322000  0.30030000  1.0
  O  O124  1  0.31264000  0.33341000  0.77713000  1.0
  O  O125  1  0.71882000  0.66963000  0.21997000  1.0
  O  O126  1  0.51581000  0.24031000  0.71395000  1.0
  O  O127  1  0.51671000  0.76049000  0.28753000  1.0
  O  O128  1  0.19911000  0.16273000  0.71959000  1.0
  O  O129  1  0.83398000  0.83863000  0.27801000  1.0
  O  O130  1  0.17224000  0.30036000  0.67549000  1.0
  O  O131  1  0.85491000  0.70140000  0.32563000  1.0
  O  O132  1  0.99783000  0.25526000  0.78539000  1.0
  O  O133  1  0.03457000  0.74520000  0.21623000  1.0
  O  O134  1  0.92214000  0.84258000  0.50567000  1.0
  O  O135  1  0.83194000  0.15595000  0.50616000  1.0
  O  O136  1  0.52153000  0.65735000  0.07959000  1.0
  O  O137  1  0.66002000  0.36373000  0.90849000  1.0
