# generated using pymatgen
data_Cd3H30C36(N6O7)2
_symmetry_space_group_name_H-M   'P 1'
_cell_length_a   8.88956000
_cell_length_b   9.98527000
_cell_length_c   13.07520000
_cell_angle_alpha   67.59160000
_cell_angle_beta   74.84360000
_cell_angle_gamma   89.02360000
_symmetry_Int_Tables_number   1
_chemical_formula_structural   Cd3H30C36(N6O7)2
_chemical_formula_sum   'Cd3 H30 C36 N12 O14'
_cell_volume   1031.20544722
_cell_formula_units_Z   1
loop_
 _symmetry_equiv_pos_site_id
 _symmetry_equiv_pos_as_xyz
  1  'x, y, z'
loop_
 _atom_site_type_symbol
 _atom_site_label
 _atom_site_symmetry_multiplicity
 _atom_site_fract_x
 _atom_site_fract_y
 _atom_site_fract_z
 _atom_site_occupancy
  Cd  Cd0  1  0.50000000  0.00000000  0.50000000  1.0
  Cd  Cd1  1  0.63907000  0.65934000  0.62577000  1.0
  Cd  Cd2  1  0.36093000  0.34066000  0.37423000  1.0
  H  H3  1  0.61902000  0.11070000  0.65922000  1.0
  H  H4  1  0.38098000  0.88929000  0.34079000  1.0
  H  H5  1  0.29288000  0.80794000  0.96096000  1.0
  H  H6  1  0.70712000  0.19206000  0.03904000  1.0
  H  H7  1  0.32697000  0.26333000  0.90200000  1.0
  H  H8  1  0.67303000  0.73667000  0.09800000  1.0
  H  H9  1  0.10436000  0.21707000  0.01642000  1.0
  H  H10  1  0.89564000  0.78293000  0.98358000  1.0
  H  H11  1  0.21651000  0.77037000  0.12991000  1.0
  H  H12  1  0.78349000  0.22963000  0.87009000  1.0
  H  H13  1  0.00058000  0.70862000  0.30735000  1.0
  H  H14  1  0.99942000  0.29138000  0.69265000  1.0
  H  H15  1  0.89812000  0.15573000  0.20005000  1.0
  H  H16  1  0.10188000  0.84427000  0.79996000  1.0
  H  H17  1  0.30459000  0.68898000  0.61206000  1.0
  H  H18  1  0.69541000  0.31102000  0.38794000  1.0
  H  H19  1  0.40921000  0.69778000  0.49108000  1.0
  H  H20  1  0.59079000  0.30222000  0.50892000  1.0
  H  H21  1  0.64131000  0.41906000  0.98021000  1.0
  H  H22  1  0.35869000  0.58094000  0.01979000  1.0
  H  H23  1  0.58208000  0.46520000  0.85407000  1.0
  H  H24  1  0.41792000  0.53480000  0.14593000  1.0
  H  H25  1  0.14440000  0.52101000  0.96042000  1.0
  H  H26  1  0.85561000  0.47899000  0.03958000  1.0
  H  H27  1  0.29511000  0.57825000  0.82964000  1.0
  H  H28  1  0.70489000  0.42175000  0.17036000  1.0
  H  H29  1  0.15335000  0.65880000  0.49234000  1.0
  H  H30  1  0.84666000  0.34120000  0.50766000  1.0
  H  H31  1  0.95498000  0.67189000  0.49490000  1.0
  H  H32  1  0.04502000  0.32811000  0.50510000  1.0
  C  C33  1  0.81541000  0.51591000  0.82860000  1.0
  C  C34  1  0.18459000  0.48409000  0.17140000  1.0
  C  C35  1  0.07385000  0.54670000  0.81858000  1.0
  C  C36  1  0.92615000  0.45331000  0.18142000  1.0
  C  C37  1  0.00079000  0.60762000  0.65244000  1.0
  C  C38  1  0.99921000  0.39238000  0.34756000  1.0
  C  C39  1  0.47552000  0.20207000  0.77256000  1.0
  C  C40  1  0.52448000  0.79793000  0.22744000  1.0
  C  C41  1  0.52777000  0.08888000  0.73892000  1.0
  C  C42  1  0.47222000  0.91112000  0.26108000  1.0
  C  C43  1  0.46210000  0.94678000  0.80796000  1.0
  C  C44  1  0.53790000  0.05321000  0.19204000  1.0
  C  C45  1  0.34713000  0.91853000  0.91133000  1.0
  C  C46  1  0.65287000  0.08147000  0.08867000  1.0
  C  C47  1  0.29733000  0.03017000  0.94903000  1.0
  C  C48  1  0.70267000  0.96983000  0.05097000  1.0
  C  C49  1  0.36289000  0.17245000  0.87762000  1.0
  C  C50  1  0.63711000  0.82755000  0.12238000  1.0
  C  C51  1  0.08582000  0.10602000  0.08089000  1.0
  C  C52  1  0.91418000  0.89398000  0.91911000  1.0
  C  C53  1  0.17593000  0.99774000  0.05880000  1.0
  C  C54  1  0.82407000  0.00226000  0.94120000  1.0
  C  C55  1  0.14551000  0.85520000  0.14338000  1.0
  C  C56  1  0.85449000  0.14480000  0.85662000  1.0
  C  C57  1  0.02620000  0.82052000  0.24450000  1.0
  C  C58  1  0.97380000  0.17947000  0.75550000  1.0
  C  C59  1  0.93641000  0.92878000  0.26552000  1.0
  C  C60  1  0.06359000  0.07122000  0.73448000  1.0
  C  C61  1  0.96857000  0.07218000  0.18326000  1.0
  C  C62  1  0.03143000  0.92782000  0.81674000  1.0
  C  C63  1  0.53880000  0.35503000  0.69626000  1.0
  C  C64  1  0.46120000  0.64497000  0.30374000  1.0
  C  C65  1  0.50758000  0.82671000  0.76845000  1.0
  C  C66  1  0.49242000  0.17329000  0.23155000  1.0
  C  C67  1  0.80576000  0.89129000  0.37263000  1.0
  C  C68  1  0.19424000  0.10871000  0.62737000  1.0
  N  N69  1  0.84569000  0.57618000  0.71145000  1.0
  N  N70  1  0.15431000  0.42382000  0.28855000  1.0
  N  N71  1  0.92490000  0.50183000  0.88481000  1.0
  N  N72  1  0.07510000  0.49817000  0.11519000  1.0
  N  N73  1  0.11832000  0.59701000  0.70205000  1.0
  N  N74  1  0.88168000  0.40299000  0.29795000  1.0
  N  N75  1  0.66851000  0.46298000  0.89266000  1.0
  N  N76  1  0.33149000  0.53702000  0.10734000  1.0
  N  N77  1  0.18248000  0.53778000  0.87413000  1.0
  N  N78  1  0.81752000  0.46222000  0.12587000  1.0
  N  N79  1  0.03941000  0.65038000  0.53767000  1.0
  N  N80  1  0.96059000  0.34962000  0.46233000  1.0
  O  O81  1  0.40708000  0.73699000  0.55148000  1.0
  O  O82  1  0.59292000  0.26301000  0.44852000  1.0
  O  O83  1  0.62728000  0.38645000  0.59536000  1.0
  O  O84  1  0.37272000  0.61355000  0.40464000  1.0
  O  O85  1  0.49818000  0.45078000  0.73946000  1.0
  O  O86  1  0.50182000  0.54922000  0.26054000  1.0
  O  O87  1  0.46643000  0.69648000  0.83537000  1.0
  O  O88  1  0.53357000  0.30352000  0.16463000  1.0
  O  O89  1  0.59049000  0.86445000  0.66145000  1.0
  O  O90  1  0.40951000  0.13555000  0.33855000  1.0
  O  O91  1  0.78379000  0.75821000  0.44419000  1.0
  O  O92  1  0.21621000  0.24179000  0.55581000  1.0
  O  O93  1  0.72539000  0.99378000  0.38434000  1.0
  O  O94  1  0.27461000  0.00622000  0.61566000  1.0
