# generated using pymatgen
data_CdH14C18(N2Cl)2
_symmetry_space_group_name_H-M   'P 1'
_cell_length_a   6.73831000
_cell_length_b   9.74161000
_cell_length_c   12.86460000
_cell_angle_alpha   101.44100000
_cell_angle_beta   93.52430000
_cell_angle_gamma   98.36760000
_symmetry_Int_Tables_number   1
_chemical_formula_structural   CdH14C18(N2Cl)2
_chemical_formula_sum   'Cd2 H28 C36 N8 Cl4'
_cell_volume   815.30609181
_cell_formula_units_Z   2
loop_
 _symmetry_equiv_pos_site_id
 _symmetry_equiv_pos_as_xyz
  1  'x, y, z'
loop_
 _atom_site_type_symbol
 _atom_site_label
 _atom_site_symmetry_multiplicity
 _atom_site_fract_x
 _atom_site_fract_y
 _atom_site_fract_z
 _atom_site_occupancy
  Cd  Cd0  1  0.26060000  0.01847000  0.57414000  1.0
  Cd  Cd1  1  0.73939000  0.98153000  0.42586000  1.0
  H  H2  1  0.91000000  0.21405000  0.66754000  1.0
  H  H3  1  0.09001000  0.78595000  0.33246000  1.0
  H  H4  1  0.84652000  0.23631000  0.29238000  1.0
  H  H5  1  0.15347000  0.76369000  0.70762000  1.0
  H  H6  1  0.01244000  0.35083000  0.23647000  1.0
  H  H7  1  0.98756000  0.64917000  0.76353000  1.0
  H  H8  1  0.86429000  0.85371000  0.80112000  1.0
  H  H9  1  0.13571000  0.14629000  0.19888000  1.0
  H  H10  1  0.09698000  0.42311000  0.99583000  1.0
  H  H11  1  0.90303000  0.57688000  0.00418000  1.0
  H  H12  1  0.85109000  0.38545000  0.83155000  1.0
  H  H13  1  0.14891000  0.61454000  0.16846000  1.0
  H  H14  1  0.60470000  0.83799000  0.64920000  1.0
  H  H15  1  0.39530000  0.16201000  0.35080000  1.0
  H  H16  1  0.85284000  0.03314000  0.97181000  1.0
  H  H17  1  0.14716000  0.96686000  0.02819000  1.0
  H  H18  1  0.57420000  0.61162000  0.27605000  1.0
  H  H19  1  0.42580000  0.38839000  0.72395000  1.0
  H  H20  1  0.35890000  0.49996000  0.29619000  1.0
  H  H21  1  0.64111000  0.50005000  0.70381000  1.0
  H  H22  1  0.63494000  0.56407000  0.45051000  1.0
  H  H23  1  0.36506000  0.43594000  0.54948000  1.0
  H  H24  1  0.55904000  0.37947000  0.40639000  1.0
  H  H25  1  0.44096000  0.62054000  0.59361000  1.0
  H  H26  1  0.92881000  0.43239000  0.43325000  1.0
  H  H27  1  0.07118000  0.56761000  0.56675000  1.0
  H  H28  1  0.93494000  0.55879000  0.35235000  1.0
  H  H29  1  0.06507000  0.44121000  0.64764000  1.0
  C  C30  1  0.45249000  0.08942000  0.82054000  1.0
  C  C31  1  0.54751000  0.91058000  0.17946000  1.0
  C  C32  1  0.29244000  0.17564000  0.82518000  1.0
  C  C33  1  0.70756000  0.82436000  0.17483000  1.0
  C  C34  1  0.58209000  0.21301000  0.00500000  1.0
  C  C35  1  0.41791000  0.78699000  0.99500000  1.0
  C  C36  1  0.59444000  0.10746000  0.90964000  1.0
  C  C37  1  0.40555000  0.89253000  0.09036000  1.0
  C  C38  1  0.27500000  0.27352000  0.92029000  1.0
  C  C39  1  0.72501000  0.72647000  0.07971000  1.0
  C  C40  1  0.01074000  0.23212000  0.74047000  1.0
  C  C41  1  0.98927000  0.76789000  0.25953000  1.0
  C  C42  1  0.86331000  0.33900000  0.26734000  1.0
  C  C43  1  0.13668000  0.66100000  0.73266000  1.0
  C  C44  1  0.74923000  0.92181000  0.80989000  1.0
  C  C45  1  0.25077000  0.07818000  0.19011000  1.0
  C  C46  1  0.11247000  0.34950000  0.92234000  1.0
  C  C47  1  0.88752000  0.65050000  0.07766000  1.0
  C  C48  1  0.97851000  0.32810000  0.83257000  1.0
  C  C49  1  0.02149000  0.67189000  0.16743000  1.0
  C  C50  1  0.54206000  0.40192000  0.18411000  1.0
  C  C51  1  0.45794000  0.59809000  0.81589000  1.0
  C  C52  1  0.70665000  0.32409000  0.17610000  1.0
  C  C53  1  0.29336000  0.67592000  0.82390000  1.0
  C  C54  1  0.60331000  0.91174000  0.72475000  1.0
  C  C55  1  0.39669000  0.08826000  0.27525000  1.0
  C  C56  1  0.74417000  0.02003000  0.90290000  1.0
  C  C57  1  0.25583000  0.97997000  0.09710000  1.0
  C  C58  1  0.42285000  0.29331000  0.01140000  1.0
  C  C59  1  0.57716000  0.70669000  0.98860000  1.0
  C  C60  1  0.52005000  0.50287000  0.28563000  1.0
  C  C61  1  0.47995000  0.49714000  0.71436000  1.0
  C  C62  1  0.63575000  0.47506000  0.38334000  1.0
  C  C63  1  0.36425000  0.52495000  0.61666000  1.0
  C  C64  1  0.85235000  0.45754000  0.36330000  1.0
  C  C65  1  0.14765000  0.54247000  0.63670000  1.0
  N  N66  1  0.45958000  0.99257000  0.73008000  1.0
  N  N67  1  0.54042000  0.00743000  0.26992000  1.0
  N  N68  1  0.16333000  0.15879000  0.73705000  1.0
  N  N69  1  0.83668000  0.84121000  0.26295000  1.0
  N  N70  1  0.72364000  0.23099000  0.08741000  1.0
  N  N71  1  0.27636000  0.76901000  0.91259000  1.0
  N  N72  1  0.40487000  0.38701000  0.10165000  1.0
  N  N73  1  0.59514000  0.61300000  0.89835000  1.0
  Cl  Cl74  1  0.92713000  0.83857000  0.54464000  1.0
  Cl  Cl75  1  0.07286000  0.16143000  0.45536000  1.0
  Cl  Cl76  1  0.40873000  0.81346000  0.45059000  1.0
  Cl  Cl77  1  0.59126000  0.18654000  0.54942000  1.0
