# generated using pymatgen
data_Zr3H5C26S5Br5O17
_symmetry_space_group_name_H-M   'P 1'
_cell_length_a   16.45190000
_cell_length_b   16.45095944
_cell_length_c   16.46980000
_cell_angle_alpha   119.70551804
_cell_angle_beta   119.70040000
_cell_angle_gamma   88.88979429
_symmetry_Int_Tables_number   1
_chemical_formula_structural   Zr3H5C26S5Br5O17
_chemical_formula_sum   'Zr6 H10 C52 S10 Br10 O34'
_cell_volume   3208.47611177
_cell_formula_units_Z   2
loop_
 _symmetry_equiv_pos_site_id
 _symmetry_equiv_pos_as_xyz
  1  'x, y, z'
loop_
 _atom_site_type_symbol
 _atom_site_label
 _atom_site_symmetry_multiplicity
 _atom_site_fract_x
 _atom_site_fract_y
 _atom_site_fract_z
 _atom_site_occupancy
  Zr  Zr0  1  0.90196000  0.40173000  0.51338000  1.0
  Zr  Zr1  1  0.10282000  0.60268000  0.49118000  1.0
  Zr  Zr2  1  0.89401000  0.39362000  0.29125000  1.0
  Zr  Zr3  1  0.11105000  0.61066000  0.71342000  1.0
  Zr  Zr4  1  0.89352000  0.61113000  0.50237000  1.0
  Zr  Zr5  1  0.11143000  0.39325000  0.50235000  1.0
  H  H6  1  0.75235000  0.42273000  0.34470000  1.0
  H  H7  1  0.08189000  0.75233000  0.65994000  1.0
  H  H8  1  0.08220000  0.41121000  0.32754000  1.0
  H  H9  1  0.09347000  0.42239000  0.67706000  1.0
  H  H10  1  0.64007000  0.13187000  0.03231000  1.0
  H  H11  1  0.65412000  0.14837000  0.30678000  1.0
  H  H12  1  0.37276000  0.86443000  0.97208000  1.0
  H  H13  1  0.35596000  0.85063000  0.69763000  1.0
  H  H14  1  0.56116000  0.06002000  0.87730000  1.0
  H  H15  1  0.44466000  0.94326000  0.12711000  1.0
  C  C16  1  0.73908000  0.51689000  0.52068000  1.0
  C  C17  1  0.98743000  0.76534000  0.48356000  1.0
  C  C18  1  0.27288000  0.49471000  0.49818000  1.0
  C  C19  1  0.00972000  0.23152000  0.50602000  1.0
  C  C20  1  0.74074000  0.23419000  0.25358000  1.0
  C  C21  1  0.00366000  0.51113000  0.77965000  1.0
  C  C22  1  0.27034000  0.76387000  0.75086000  1.0
  C  C23  1  0.99343000  0.50095000  0.22494000  1.0
  C  C24  1  0.73076000  0.50283000  0.22990000  1.0
  C  C25  1  0.99596000  0.22316000  0.23046000  1.0
  C  C26  1  0.28137000  0.50850000  0.77426000  1.0
  C  C27  1  0.00163000  0.77371000  0.77483000  1.0
  C  C28  1  0.42396000  0.43627000  0.51117000  1.0
  C  C29  1  0.59104000  0.57856000  0.51440000  1.0
  C  C30  1  0.36482000  0.49734000  0.50425000  1.0
  C  C31  1  0.64982000  0.51708000  0.52039000  1.0
  C  C32  1  0.50881000  0.54935000  0.51137000  1.0
  C  C33  1  0.50667000  0.46597000  0.51523000  1.0
  C  C34  1  0.92552000  0.91318000  0.48942000  1.0
  C  C35  1  0.06740000  0.07981000  0.49175000  1.0
  C  C36  1  0.98688000  0.85429000  0.48320000  1.0
  C  C37  1  0.00668000  0.13926000  0.49926000  1.0
  C  C38  1  0.03761000  0.99708000  0.48761000  1.0
  C  C39  1  0.95453000  0.99523000  0.49205000  1.0
  C  C40  1  0.92843000  0.08315000  0.02320000  1.0
  C  C41  1  0.06487000  0.90923000  0.98225000  1.0
  C  C42  1  0.99325000  0.13328000  0.13975000  1.0
  C  C43  1  0.00073000  0.85984000  0.86568000  1.0
  C  C44  1  0.03841000  0.99035000  0.03979000  1.0
  C  C45  1  0.95413000  0.00127000  0.96570000  1.0
  C  C46  1  0.59481000  0.43898000  0.02241000  1.0
  C  C47  1  0.42104000  0.57554000  0.98147000  1.0
  C  C48  1  0.64431000  0.50332000  0.13897000  1.0
  C  C49  1  0.37092000  0.51080000  0.86492000  1.0
  C  C50  1  0.50274000  0.54967000  0.03889000  1.0
  C  C51  1  0.51361000  0.46532000  0.96484000  1.0
  C  C52  1  0.60780000  0.10050000  0.05852000  1.0
  C  C53  1  0.61744000  0.11111000  0.21611000  1.0
  C  C54  1  0.53571000  0.03014000  0.14249000  1.0
  C  C55  1  0.48682000  0.98023000  0.02288000  1.0
  C  C56  1  0.40409000  0.89671000  0.94586000  1.0
  C  C57  1  0.39337000  0.88718000  0.78829000  1.0
  C  C58  1  0.47437000  0.96887000  0.86190000  1.0
  C  C59  1  0.52432000  0.01773000  0.98150000  1.0
  C  C60  1  0.65343000  0.14604000  0.17358000  1.0
  C  C61  1  0.35851000  0.85112000  0.83082000  1.0
  C  C62  1  0.05957000  0.57242000  0.15311000  1.0
  C  C63  1  0.93228000  0.44497000  0.85153000  1.0
  C  C64  1  0.99427000  0.50625000  0.13905000  1.0
  C  C65  1  0.99841000  0.51026000  0.86554000  1.0
  C  C66  1  0.95416000  0.46803000  0.95633000  1.0
  C  C67  1  0.03659000  0.55050000  0.04831000  1.0
  S  S68  1  0.41027000  0.59127000  0.50283000  1.0
  S  S69  1  0.60485000  0.42365000  0.52286000  1.0
  S  S70  1  0.07992000  0.89889000  0.47996000  1.0
  S  S71  1  0.91288000  0.09401000  0.50100000  1.0
  S  S72  1  0.08575000  0.07972000  0.17900000  1.0
  S  S73  1  0.90740000  0.91256000  0.82647000  1.0
  S  S74  1  0.59152000  0.59659000  0.17814000  1.0
  S  S75  1  0.42429000  0.41810000  0.82563000  1.0
  S  S76  1  0.90458000  0.41757000  0.99761000  1.0
  S  S77  1  0.08705000  0.60003000  0.00701000  1.0
  Br  Br78  1  0.40308000  0.32660000  0.51477000  1.0
  Br  Br79  1  0.61123000  0.68759000  0.50954000  1.0
  Br  Br80  1  0.81703000  0.89343000  0.49532000  1.0
  Br  Br81  1  0.17683000  0.10031000  0.48766000  1.0
  Br  Br82  1  0.81940000  0.11465000  0.94238000  1.0
  Br  Br83  1  0.17463000  0.87834000  0.06271000  1.0
  Br  Br84  1  0.62569000  0.32912000  0.94198000  1.0
  Br  Br85  1  0.38967000  0.68466000  0.06237000  1.0
  Br  Br86  1  0.16757000  0.67924000  0.28845000  1.0
  Br  Br87  1  0.82555000  0.33691000  0.71618000  1.0
  O  O88  1  0.77555000  0.44819000  0.52338000  1.0
  O  O89  1  0.05619000  0.72894000  0.48099000  1.0
  O  O90  1  0.23491000  0.56173000  0.49210000  1.0
  O  O91  1  0.94289000  0.26968000  0.51246000  1.0
  O  O92  1  0.77119000  0.26537000  0.21327000  1.0
  O  O93  1  0.07253000  0.57790000  0.81257000  1.0
  O  O94  1  0.23922000  0.73341000  0.79122000  1.0
  O  O95  1  0.92670000  0.43206000  0.19204000  1.0
  O  O96  1  0.76220000  0.57219000  0.33126000  1.0
  O  O97  1  0.06700000  0.25648000  0.33175000  1.0
  O  O98  1  0.24813000  0.43758000  0.67292000  1.0
  O  O99  1  0.93238000  0.74232000  0.67344000  1.0
  O  O100  1  0.92769000  0.26135000  0.20007000  1.0
  O  O101  1  0.24336000  0.57693000  0.80466000  1.0
  O  O102  1  0.07250000  0.73822000  0.80498000  1.0
  O  O103  1  0.76646000  0.43213000  0.19979000  1.0
  O  O104  1  0.77840000  0.27376000  0.35866000  1.0
  O  O105  1  0.06200000  0.56628000  0.32716000  1.0
  O  O106  1  0.23065000  0.72631000  0.64579000  1.0
  O  O107  1  0.93830000  0.44257000  0.67743000  1.0
  O  O108  1  0.07836000  0.26664000  0.50604000  1.0
  O  O109  1  0.77194000  0.58308000  0.51592000  1.0
  O  O110  1  0.92146000  0.73267000  0.48873000  1.0
  O  O111  1  0.23784000  0.42623000  0.49845000  1.0
  O  O112  1  0.06862000  0.44549000  0.62782000  1.0
  O  O113  1  0.05913000  0.43606000  0.37681000  1.0
  O  O114  1  0.05852000  0.68125000  0.61474000  1.0
  O  O115  1  0.82343000  0.44610000  0.38996000  1.0
  O  O116  1  0.95357000  0.54396000  0.40990000  1.0
  O  O117  1  0.96070000  0.55105000  0.59478000  1.0
  O  O118  1  0.13415000  0.54332000  0.58505000  1.0
  O  O119  1  0.96135000  0.37045000  0.41959000  1.0
  O  O120  1  0.50482000  0.00132000  0.81676000  1.0
  O  O121  1  0.50331000  0.99965000  0.18763000  1.0
