# generated using pymatgen
data_ZnH18C29N6(O2F3)2
_symmetry_space_group_name_H-M   'P 1'
_cell_length_a   13.87090000
_cell_length_b   14.10090000
_cell_length_c   18.48960000
_cell_angle_alpha   90.00030000
_cell_angle_beta   90.00040000
_cell_angle_gamma   82.97980000
_symmetry_Int_Tables_number   1
_chemical_formula_structural   ZnH18C29N6(O2F3)2
_chemical_formula_sum   'Zn4 H72 C116 N24 O16 F24'
_cell_volume   3589.30919699
_cell_formula_units_Z   4
loop_
 _symmetry_equiv_pos_site_id
 _symmetry_equiv_pos_as_xyz
  1  'x, y, z'
loop_
 _atom_site_type_symbol
 _atom_site_label
 _atom_site_symmetry_multiplicity
 _atom_site_fract_x
 _atom_site_fract_y
 _atom_site_fract_z
 _atom_site_occupancy
  Zn  Zn0  1  0.55850000  0.35213000  0.25995000  1.0
  Zn  Zn1  1  0.44150000  0.14787000  0.75995000  1.0
  Zn  Zn2  1  0.44150000  0.64787000  0.74005000  1.0
  Zn  Zn3  1  0.55850000  0.85213000  0.24005000  1.0
  H  H4  1  0.44124000  0.73540000  0.57590000  1.0
  H  H5  1  0.55876000  0.76460000  0.07591000  1.0
  H  H6  1  0.55875000  0.26460000  0.42409000  1.0
  H  H7  1  0.44125000  0.23540000  0.92410000  1.0
  H  H8  1  0.38135000  0.78228000  0.50388000  1.0
  H  H9  1  0.61864000  0.71771000  0.00389000  1.0
  H  H10  1  0.61864000  0.21772000  0.49612000  1.0
  H  H11  1  0.38136000  0.28228000  0.99612000  1.0
  H  H12  1  0.44317000  0.44554000  0.38781000  1.0
  H  H13  1  0.55683000  0.05447000  0.88782000  1.0
  H  H14  1  0.55683000  0.55447000  0.61218000  1.0
  H  H15  1  0.44317000  0.94553000  0.11218000  1.0
  H  H16  1  0.61606000  0.10177000  0.66383000  1.0
  H  H17  1  0.38393000  0.39823000  0.16383000  1.0
  H  H18  1  0.38393000  0.89823000  0.33617000  1.0
  H  H19  1  0.61607000  0.60176000  0.83617000  1.0
  H  H20  1  0.24880000  0.24234000  0.38955000  1.0
  H  H21  1  0.75121000  0.25767000  0.88956000  1.0
  H  H22  1  0.75121000  0.75766000  0.61045000  1.0
  H  H23  1  0.24879000  0.74233000  0.11045000  1.0
  H  H24  1  0.67292000  0.97554000  0.57214000  1.0
  H  H25  1  0.32707000  0.52445000  0.07214000  1.0
  H  H26  1  0.32707000  0.02446000  0.42786000  1.0
  H  H27  1  0.67293000  0.47554000  0.92786000  1.0
  H  H28  1  0.11841000  0.13952000  0.37064000  1.0
  H  H29  1  0.88159000  0.36049000  0.87064000  1.0
  H  H30  1  0.88159000  0.86048000  0.62937000  1.0
  H  H31  1  0.11841000  0.63952000  0.12936000  1.0
  H  H32  1  0.26472000  0.02402000  0.17778000  1.0
  H  H33  1  0.73528000  0.47598000  0.67778000  1.0
  H  H34  1  0.73528000  0.97599000  0.82222000  1.0
  H  H35  1  0.26472000  0.52401000  0.32221000  1.0
  H  H36  1  0.44750000  0.59510000  0.46181000  1.0
  H  H37  1  0.55250000  0.90490000  0.96182000  1.0
  H  H38  1  0.55249000  0.40490000  0.53818000  1.0
  H  H39  1  0.44751000  0.09510000  0.03818000  1.0
  H  H40  1  0.38146000  0.89538000  0.57516000  1.0
  H  H41  1  0.61853000  0.60461000  0.07515000  1.0
  H  H42  1  0.61854000  0.10462000  0.42484000  1.0
  H  H43  1  0.38147000  0.39538000  0.92485000  1.0
  H  H44  1  0.33715000  0.02668000  0.66032000  1.0
  H  H45  1  0.66285000  0.47332000  0.16032000  1.0
  H  H46  1  0.66285000  0.97332000  0.33968000  1.0
  H  H47  1  0.33715000  0.52667000  0.83968000  1.0
  H  H48  1  0.38807000  0.13428000  0.19432000  1.0
  H  H49  1  0.61193000  0.36571000  0.69433000  1.0
  H  H50  1  0.61193000  0.86571000  0.80568000  1.0
  H  H51  1  0.38807000  0.63429000  0.30568000  1.0
  H  H52  1  0.03833000  0.18654000  0.21328000  1.0
  H  H53  1  0.96167000  0.31346000  0.71328000  1.0
  H  H54  1  0.96168000  0.81346000  0.78673000  1.0
  H  H55  1  0.03833000  0.68654000  0.28672000  1.0
  H  H56  1  0.87645000  0.28193000  0.22169000  1.0
  H  H57  1  0.12355000  0.21807000  0.72169000  1.0
  H  H58  1  0.12356000  0.71808000  0.77832000  1.0
  H  H59  1  0.87645000  0.78193000  0.27831000  1.0
  H  H60  1  0.78042000  0.07101000  0.36294000  1.0
  H  H61  1  0.21958000  0.42900000  0.86295000  1.0
  H  H62  1  0.21958000  0.92900000  0.63705000  1.0
  H  H63  1  0.78042000  0.57100000  0.13705000  1.0
  H  H64  1  0.93662000  0.96964000  0.34864000  1.0
  H  H65  1  0.06339000  0.53036000  0.84864000  1.0
  H  H66  1  0.06338000  0.03036000  0.65136000  1.0
  H  H67  1  0.93662000  0.46964000  0.15136000  1.0
  H  H68  1  0.70927000  0.64038000  0.34775000  1.0
  H  H69  1  0.29073000  0.85963000  0.84775000  1.0
  H  H70  1  0.29073000  0.35962000  0.65226000  1.0
  H  H71  1  0.70928000  0.14037000  0.15226000  1.0
  H  H72  1  0.69576000  0.48872000  0.28028000  1.0
  H  H73  1  0.30425000  0.01129000  0.78028000  1.0
  H  H74  1  0.30424000  0.51128000  0.71972000  1.0
  H  H75  1  0.69575000  0.98871000  0.21973000  1.0
  C  C76  1  0.58943000  0.71914000  0.44798000  1.0
  C  C77  1  0.41057000  0.78086000  0.94798000  1.0
  C  C78  1  0.41057000  0.28086000  0.55202000  1.0
  C  C79  1  0.58943000  0.21914000  0.05202000  1.0
  C  C80  1  0.50018000  0.49170000  0.38100000  1.0
  C  C81  1  0.49982000  0.00830000  0.88100000  1.0
  C  C82  1  0.49982000  0.50830000  0.61900000  1.0
  C  C83  1  0.50018000  0.99170000  0.11900000  1.0
  C  C84  1  0.56899000  0.84763000  0.51578000  1.0
  C  C85  1  0.43100000  0.65237000  0.01577000  1.0
  C  C86  1  0.43100000  0.15237000  0.48422000  1.0
  C  C87  1  0.56900000  0.34763000  0.98422000  1.0
  C  C88  1  0.56711000  0.05453000  0.64146000  1.0
  C  C89  1  0.43288000  0.44547000  0.14145000  1.0
  C  C90  1  0.43288000  0.94547000  0.35854000  1.0
  C  C91  1  0.56712000  0.55453000  0.85854000  1.0
  C  C92  1  0.25053000  0.19544000  0.34269000  1.0
  C  C93  1  0.74948000  0.30456000  0.84270000  1.0
  C  C94  1  0.74948000  0.80456000  0.65731000  1.0
  C  C95  1  0.25052000  0.69544000  0.15730000  1.0
  C  C96  1  0.53283000  0.92288000  0.56616000  1.0
  C  C97  1  0.46716000  0.57712000  0.06615000  1.0
  C  C98  1  0.46716000  0.07712000  0.43384000  1.0
  C  C99  1  0.53284000  0.42288000  0.93384000  1.0
  C  C100  1  0.32590000  0.19559000  0.29245000  1.0
  C  C101  1  0.67409000  0.30440000  0.79246000  1.0
  C  C102  1  0.67409000  0.80440000  0.70755000  1.0
  C  C103  1  0.32591000  0.69560000  0.20754000  1.0
  C  C104  1  0.57870000  0.63043000  0.41010000  1.0
  C  C105  1  0.42130000  0.86957000  0.91011000  1.0
  C  C106  1  0.42130000  0.36957000  0.58990000  1.0
  C  C107  1  0.57870000  0.13043000  0.08990000  1.0
  C  C108  1  0.59809000  0.98486000  0.59102000  1.0
  C  C109  1  0.40190000  0.51513000  0.09101000  1.0
  C  C110  1  0.40190000  0.01513000  0.40898000  1.0
  C  C111  1  0.59810000  0.48487000  0.90898000  1.0
  C  C112  1  0.40259000  0.26058000  0.30275000  1.0
  C  C113  1  0.59741000  0.23941000  0.80275000  1.0
  C  C114  1  0.59741000  0.73941000  0.69725000  1.0
  C  C115  1  0.40259000  0.76059000  0.19726000  1.0
  C  C116  1  0.17819000  0.13671000  0.33219000  1.0
  C  C117  1  0.82181000  0.36329000  0.83220000  1.0
  C  C118  1  0.82181000  0.86328000  0.66781000  1.0
  C  C119  1  0.17819000  0.63671000  0.16780000  1.0
  C  C120  1  0.25858000  0.07257000  0.22372000  1.0
  C  C121  1  0.74142000  0.42743000  0.72372000  1.0
  C  C122  1  0.74142000  0.92743000  0.77628000  1.0
  C  C123  1  0.25858000  0.57257000  0.27627000  1.0
  C  C124  1  0.18107000  0.07471000  0.27256000  1.0
  C  C125  1  0.81893000  0.42530000  0.77256000  1.0
  C  C126  1  0.81893000  0.92529000  0.72744000  1.0
  C  C127  1  0.18107000  0.57470000  0.22744000  1.0
  C  C128  1  0.09864000  0.01134000  0.26525000  1.0
  C  C129  1  0.90136000  0.48866000  0.76525000  1.0
  C  C130  1  0.90136000  0.98866000  0.73476000  1.0
  C  C131  1  0.09864000  0.51134000  0.23475000  1.0
  C  C132  1  0.50326000  0.57407000  0.42173000  1.0
  C  C133  1  0.49674000  0.92594000  0.92173000  1.0
  C  C134  1  0.49673000  0.42593000  0.57827000  1.0
  C  C135  1  0.50327000  0.07406000  0.07827000  1.0
  C  C136  1  0.43692000  0.93891000  0.59131000  1.0
  C  C137  1  0.56307000  0.56109000  0.09131000  1.0
  C  C138  1  0.56307000  0.06109000  0.40869000  1.0
  C  C139  1  0.43693000  0.43891000  0.90869000  1.0
  C  C140  1  0.81774000  0.18228000  0.29246000  1.0
  C  C141  1  0.18226000  0.31772000  0.79247000  1.0
  C  C142  1  0.18226000  0.81773000  0.70754000  1.0
  C  C143  1  0.81774000  0.68228000  0.20753000  1.0
  C  C144  1  0.09181000  0.96845000  0.18761000  1.0
  C  C145  1  0.90819000  0.53154000  0.68761000  1.0
  C  C146  1  0.90820000  0.03155000  0.81239000  1.0
  C  C147  1  0.09181000  0.46845000  0.31239000  1.0
  C  C148  1  0.41150000  0.01163000  0.64075000  1.0
  C  C149  1  0.58849000  0.48836000  0.14075000  1.0
  C  C150  1  0.58849000  0.98836000  0.35925000  1.0
  C  C151  1  0.41151000  0.51164000  0.85925000  1.0
  C  C152  1  0.32910000  0.13391000  0.23311000  1.0
  C  C153  1  0.67089000  0.36608000  0.73311000  1.0
  C  C154  1  0.67090000  0.86608000  0.76689000  1.0
  C  C155  1  0.32911000  0.63392000  0.26689000  1.0
  C  C156  1  0.99950000  0.07044000  0.27929000  1.0
  C  C157  1  0.00050000  0.42957000  0.77929000  1.0
  C  C158  1  0.00050000  0.92957000  0.72071000  1.0
  C  C159  1  0.99950000  0.57043000  0.22071000  1.0
  C  C160  1  0.98136000  0.15962000  0.24486000  1.0
  C  C161  1  0.01865000  0.34038000  0.74487000  1.0
  C  C162  1  0.01865000  0.84039000  0.75514000  1.0
  C  C163  1  0.98136000  0.65961000  0.25514000  1.0
  C  C164  1  0.89106000  0.21405000  0.25010000  1.0
  C  C165  1  0.10894000  0.28595000  0.75011000  1.0
  C  C166  1  0.10894000  0.78596000  0.74990000  1.0
  C  C167  1  0.89106000  0.71405000  0.24989000  1.0
  C  C168  1  0.83672000  0.09497000  0.32880000  1.0
  C  C169  1  0.16328000  0.40504000  0.82880000  1.0
  C  C170  1  0.16328000  0.90504000  0.67120000  1.0
  C  C171  1  0.83672000  0.59496000  0.17120000  1.0
  C  C172  1  0.92590000  0.03840000  0.32127000  1.0
  C  C173  1  0.07411000  0.46160000  0.82127000  1.0
  C  C174  1  0.07411000  0.96160000  0.67873000  1.0
  C  C175  1  0.92590000  0.53840000  0.17873000  1.0
  C  C176  1  0.64964000  0.59875000  0.35816000  1.0
  C  C177  1  0.35036000  0.90125000  0.85816000  1.0
  C  C178  1  0.35036000  0.40124000  0.64184000  1.0
  C  C179  1  0.64964000  0.09875000  0.14184000  1.0
  C  C180  1  0.12220000  0.92708000  0.31962000  1.0
  C  C181  1  0.87780000  0.57292000  0.81962000  1.0
  C  C182  1  0.87779000  0.07291000  0.68038000  1.0
  C  C183  1  0.12221000  0.42708000  0.18038000  1.0
  C  C184  1  0.71955000  0.23938000  0.29785000  1.0
  C  C185  1  0.28045000  0.26063000  0.79786000  1.0
  C  C186  1  0.28045000  0.76062000  0.70215000  1.0
  C  C187  1  0.71955000  0.73937000  0.20214000  1.0
  C  C188  1  0.64152000  0.51554000  0.32033000  1.0
  C  C189  1  0.35848000  0.98446000  0.82033000  1.0
  C  C190  1  0.35848000  0.48445000  0.67967000  1.0
  C  C191  1  0.64152000  0.01554000  0.17967000  1.0
  N  N192  1  0.52518000  0.76931000  0.49475000  1.0
  N  N193  1  0.47482000  0.73069000  0.99475000  1.0
  N  N194  1  0.47482000  0.23069000  0.50525000  1.0
  N  N195  1  0.52518000  0.26931000  0.00525000  1.0
  N  N196  1  0.47522000  0.06714000  0.66715000  1.0
  N  N197  1  0.52477000  0.43285000  0.16715000  1.0
  N  N198  1  0.52477000  0.93286000  0.33285000  1.0
  N  N199  1  0.47523000  0.56714000  0.83285000  1.0
  N  N200  1  0.56741000  0.46289000  0.33050000  1.0
  N  N201  1  0.43259000  0.03711000  0.83051000  1.0
  N  N202  1  0.43259000  0.53711000  0.66949000  1.0
  N  N203  1  0.56741000  0.96289000  0.16949000  1.0
  N  N204  1  0.66747000  0.76534000  0.44038000  1.0
  N  N205  1  0.33253000  0.73467000  0.94038000  1.0
  N  N206  1  0.33253000  0.23466000  0.55961000  1.0
  N  N207  1  0.66747000  0.26534000  0.05962000  1.0
  N  N208  1  0.44019000  0.73676000  0.52030000  1.0
  N  N209  1  0.55981000  0.76324000  0.02030000  1.0
  N  N210  1  0.55981000  0.26324000  0.47970000  1.0
  N  N211  1  0.44019000  0.23676000  0.97970000  1.0
  N  N212  1  0.65491000  0.84460000  0.48254000  1.0
  N  N213  1  0.34508000  0.65541000  0.98254000  1.0
  N  N214  1  0.34508000  0.15540000  0.51745000  1.0
  N  N215  1  0.65492000  0.34460000  0.01746000  1.0
  O  O216  1  0.45907000  0.26731000  0.24732000  1.0
  O  O217  1  0.54094000  0.23268000  0.74733000  1.0
  O  O218  1  0.54094000  0.73269000  0.75267000  1.0
  O  O219  1  0.45906000  0.76732000  0.25267000  1.0
  O  O220  1  0.40920000  0.30381000  0.36135000  1.0
  O  O221  1  0.59081000  0.19618000  0.86136000  1.0
  O  O222  1  0.59081000  0.69619000  0.63865000  1.0
  O  O223  1  0.40919000  0.80382000  0.13865000  1.0
  O  O224  1  0.69744000  0.30153000  0.24698000  1.0
  O  O225  1  0.30256000  0.19847000  0.74699000  1.0
  O  O226  1  0.30257000  0.69847000  0.75302000  1.0
  O  O227  1  0.69744000  0.80153000  0.25301000  1.0
  O  O228  1  0.66309000  0.22391000  0.34846000  1.0
  O  O229  1  0.33691000  0.27609000  0.84847000  1.0
  O  O230  1  0.33691000  0.77609000  0.65154000  1.0
  O  O231  1  0.66309000  0.72391000  0.15153000  1.0
  F  F232  1  0.08775000  0.03803000  0.13625000  1.0
  F  F233  1  0.91225000  0.46196000  0.63626000  1.0
  F  F234  1  0.91225000  0.96197000  0.86375000  1.0
  F  F235  1  0.08776000  0.53803000  0.36374000  1.0
  F  F236  1  0.06368000  0.85659000  0.31210000  1.0
  F  F237  1  0.93631000  0.64341000  0.81209000  1.0
  F  F238  1  0.93630000  0.14341000  0.68790000  1.0
  F  F239  1  0.06370000  0.35659000  0.18790000  1.0
  F  F240  1  0.16875000  0.90251000  0.17080000  1.0
  F  F241  1  0.83125000  0.59748000  0.67079000  1.0
  F  F242  1  0.83126000  0.09749000  0.82921000  1.0
  F  F243  1  0.16875000  0.40251000  0.32920000  1.0
  F  F244  1  0.11317000  0.95819000  0.38940000  1.0
  F  F245  1  0.88681000  0.54182000  0.88940000  1.0
  F  F246  1  0.88681000  0.04181000  0.61061000  1.0
  F  F247  1  0.11319000  0.45819000  0.11060000  1.0
  F  F248  1  0.21524000  0.88422000  0.31203000  1.0
  F  F249  1  0.78476000  0.61578000  0.81202000  1.0
  F  F250  1  0.78476000  0.11577000  0.68798000  1.0
  F  F251  1  0.21525000  0.38423000  0.18798000  1.0
  F  F252  1  0.01038000  0.92448000  0.17984000  1.0
  F  F253  1  0.98962000  0.57552000  0.67984000  1.0
  F  F254  1  0.98962000  0.07552000  0.82016000  1.0
  F  F255  1  0.01039000  0.42448000  0.32016000  1.0
