# generated using pymatgen
data_CuH24C20S2IO3
_symmetry_space_group_name_H-M   'P 1'
_cell_length_a   9.56988000
_cell_length_b   10.17220000
_cell_length_c   12.82270000
_cell_angle_alpha   103.76100000
_cell_angle_beta   103.09500000
_cell_angle_gamma   94.00390000
_symmetry_Int_Tables_number   1
_chemical_formula_structural   CuH24C20S2IO3
_chemical_formula_sum   'Cu2 H48 C40 S4 I2 O6'
_cell_volume   1170.74931157
_cell_formula_units_Z   2
loop_
 _symmetry_equiv_pos_site_id
 _symmetry_equiv_pos_as_xyz
  1  'x, y, z'
loop_
 _atom_site_type_symbol
 _atom_site_label
 _atom_site_symmetry_multiplicity
 _atom_site_fract_x
 _atom_site_fract_y
 _atom_site_fract_z
 _atom_site_occupancy
  Cu  Cu0  1  0.57578000  0.55515000  0.61695000  1.0
  Cu  Cu1  1  0.42421000  0.44485000  0.38304000  1.0
  H  H2  1  0.05979000  0.23430000  0.00742000  1.0
  H  H3  1  0.94021000  0.76570000  0.99257000  1.0
  H  H4  1  0.96647000  0.12339000  0.87540000  1.0
  H  H5  1  0.03353000  0.87661000  0.12460000  1.0
  H  H6  1  0.92728000  0.06457000  0.05294000  1.0
  H  H7  1  0.07272000  0.93544000  0.94706000  1.0
  H  H8  1  0.81739000  0.20003000  0.06438000  1.0
  H  H9  1  0.18261000  0.79997000  0.93562000  1.0
  H  H10  1  0.76594000  0.99787000  0.12805000  1.0
  H  H11  1  0.23406000  0.00214000  0.87195000  1.0
  H  H12  1  0.62250000  0.81182000  0.16536000  1.0
  H  H13  1  0.37750000  0.18819000  0.83464000  1.0
  H  H14  1  0.43397000  0.65062000  0.01169000  1.0
  H  H15  1  0.56602000  0.34938000  0.98831000  1.0
  H  H16  1  0.39257000  0.68070000  0.82034000  1.0
  H  H17  1  0.60743000  0.31930000  0.17966000  1.0
  H  H18  1  0.55052000  0.97457000  0.74694000  1.0
  H  H19  1  0.44948000  0.02542000  0.25306000  1.0
  H  H20  1  0.42640000  0.81821000  0.69733000  1.0
  H  H21  1  0.57360000  0.18179000  0.30267000  1.0
  H  H22  1  0.70221000  0.76912000  0.50638000  1.0
  H  H23  1  0.29779000  0.23089000  0.49362000  1.0
  H  H24  1  0.53181000  0.82367000  0.51535000  1.0
  H  H25  1  0.46818000  0.17633000  0.48464000  1.0
  H  H26  1  0.82318000  0.00831000  0.62254000  1.0
  H  H27  1  0.17681000  0.99169000  0.37746000  1.0
  H  H28  1  0.70662000  0.00456000  0.49048000  1.0
  H  H29  1  0.29338000  0.99544000  0.50952000  1.0
  H  H30  1  0.66755000  0.25728000  0.58601000  1.0
  H  H31  1  0.33245000  0.74272000  0.41400000  1.0
  H  H32  1  0.79021000  0.23271000  0.70452000  1.0
  H  H33  1  0.20979000  0.76728000  0.29548000  1.0
  H  H34  1  0.60405000  0.25121000  0.81019000  1.0
  H  H35  1  0.39595000  0.74879000  0.18981000  1.0
  H  H36  1  0.46658000  0.23934000  0.68759000  1.0
  H  H37  1  0.53342000  0.76065000  0.31241000  1.0
  H  H38  1  0.74059000  0.63537000  0.89657000  1.0
  H  H39  1  0.25941000  0.36463000  0.10343000  1.0
  H  H40  1  0.73393000  0.48475000  0.94306000  1.0
  H  H41  1  0.26607000  0.51526000  0.05694000  1.0
  H  H42  1  0.89529000  0.66048000  0.76614000  1.0
  H  H43  1  0.10472000  0.33952000  0.23385000  1.0
  H  H44  1  0.12650000  0.61284000  0.71462000  1.0
  H  H45  1  0.87351000  0.38716000  0.28539000  1.0
  H  H46  1  0.24991000  0.42269000  0.76699000  1.0
  H  H47  1  0.75009000  0.57731000  0.23303000  1.0
  H  H48  1  0.14139000  0.27712000  0.86513000  1.0
  H  H49  1  0.85861000  0.72289000  0.13488000  1.0
  C  C50  1  0.95247000  0.19639000  0.95007000  1.0
  C  C51  1  0.04753000  0.80361000  0.04993000  1.0
  C  C52  1  0.85975000  0.12516000  0.00604000  1.0
  C  C53  1  0.14024000  0.87484000  0.99396000  1.0
  C  C54  1  0.66534000  0.94077000  0.95138000  1.0
  C  C55  1  0.33466000  0.05923000  0.04862000  1.0
  C  C56  1  0.68693000  0.92674000  0.05971000  1.0
  C  C57  1  0.31306000  0.07327000  0.94029000  1.0
  C  C58  1  0.60393000  0.82198000  0.08078000  1.0
  C  C59  1  0.39606000  0.17802000  0.91922000  1.0
  C  C60  1  0.49823000  0.73274000  0.99549000  1.0
  C  C61  1  0.50178000  0.26726000  0.00451000  1.0
  C  C62  1  0.47510000  0.74941000  0.88806000  1.0
  C  C63  1  0.52490000  0.25058000  0.11194000  1.0
  C  C64  1  0.55754000  0.85192000  0.86399000  1.0
  C  C65  1  0.44247000  0.14808000  0.13601000  1.0
  C  C66  1  0.53395000  0.86762000  0.74849000  1.0
  C  C67  1  0.46606000  0.13237000  0.25151000  1.0
  C  C68  1  0.64729000  0.84035000  0.55730000  1.0
  C  C69  1  0.35270000  0.15965000  0.44269000  1.0
  C  C70  1  0.70940000  0.98679000  0.57292000  1.0
  C  C71  1  0.29060000  0.01321000  0.42707000  1.0
  C  C72  1  0.67552000  0.21526000  0.65882000  1.0
  C  C73  1  0.32448000  0.78474000  0.34118000  1.0
  C  C74  1  0.57992000  0.27957000  0.73121000  1.0
  C  C75  1  0.42008000  0.72042000  0.26879000  1.0
  C  C76  1  0.74687000  0.52519000  0.87335000  1.0
  C  C77  1  0.25313000  0.47481000  0.12665000  1.0
  C  C78  1  0.88591000  0.49627000  0.84350000  1.0
  C  C79  1  0.11409000  0.50374000  0.15651000  1.0
  C  C80  1  0.95012000  0.57681000  0.78832000  1.0
  C  C81  1  0.04989000  0.42319000  0.21169000  1.0
  C  C82  1  0.07990000  0.55108000  0.76012000  1.0
  C  C83  1  0.92010000  0.44892000  0.23989000  1.0
  C  C84  1  0.14807000  0.44322000  0.78834000  1.0
  C  C85  1  0.85194000  0.55679000  0.21166000  1.0
  C  C86  1  0.08643000  0.36055000  0.84338000  1.0
  C  C87  1  0.91357000  0.63945000  0.15663000  1.0
  C  C88  1  0.95525000  0.38630000  0.87014000  1.0
  C  C89  1  0.04475000  0.61370000  0.12987000  1.0
  S  S90  1  0.66802000  0.78276000  0.68312000  1.0
  S  S91  1  0.33198000  0.21723000  0.31688000  1.0
  S  S92  1  0.58104000  0.46267000  0.76178000  1.0
  S  S93  1  0.41896000  0.53732000  0.23822000  1.0
  I  I94  1  0.71124000  0.46078000  0.46449000  1.0
  I  I95  1  0.28874000  0.53922000  0.53551000  1.0
  O  O96  1  0.88449000  0.30741000  0.92051000  1.0
  O  O97  1  0.11551000  0.69259000  0.07950000  1.0
  O  O98  1  0.74363000  0.03740000  0.92211000  1.0
  O  O99  1  0.25637000  0.96260000  0.07789000  1.0
  O  O100  1  0.62222000  0.07297000  0.62692000  1.0
  O  O101  1  0.37777000  0.92703000  0.37307000  1.0
