# generated using pymatgen
data_AlH5C8O5
_symmetry_space_group_name_H-M   'P 1'
_cell_length_a   6.63357000
_cell_length_b   12.88530000
_cell_length_c   19.22010000
_cell_angle_alpha   89.99960000
_cell_angle_beta   83.23290000
_cell_angle_gamma   89.99950000
_symmetry_Int_Tables_number   1
_chemical_formula_structural   AlH5C8O5
_chemical_formula_sum   'Al8 H40 C64 O40'
_cell_volume   1631.40324009
_cell_formula_units_Z   8
loop_
 _symmetry_equiv_pos_site_id
 _symmetry_equiv_pos_as_xyz
  1  'x, y, z'
loop_
 _atom_site_type_symbol
 _atom_site_label
 _atom_site_symmetry_multiplicity
 _atom_site_fract_x
 _atom_site_fract_y
 _atom_site_fract_z
 _atom_site_occupancy
  Al  Al0  1  0.00034000  0.75051000  0.49988000  1.0
  Al  Al1  1  0.49968000  0.25052000  0.50012000  1.0
  Al  Al2  1  0.99968000  0.24950000  0.50012000  1.0
  Al  Al3  1  0.50034000  0.74948000  0.49988000  1.0
  Al  Al4  1  0.99999000  0.50000000  0.00000000  1.0
  Al  Al5  1  0.50001000  0.00000000  0.00000000  1.0
  Al  Al6  1  0.49997000  0.50001000  1.00000000  1.0
  Al  Al7  1  0.00000000  0.00000000  0.00000000  1.0
  H  H8  1  0.92222000  0.93029000  0.21113000  1.0
  H  H9  1  0.57777000  0.43029000  0.78887000  1.0
  H  H10  1  0.07778000  0.06971000  0.78887000  1.0
  H  H11  1  0.42221000  0.56971000  0.21113000  1.0
  H  H12  1  0.95861000  0.91675000  0.33915000  1.0
  H  H13  1  0.54140000  0.41676000  0.66086000  1.0
  H  H14  1  0.04139000  0.08325000  0.66085000  1.0
  H  H15  1  0.45863000  0.58323000  0.33915000  1.0
  H  H16  1  0.57845000  0.81956000  0.28883000  1.0
  H  H17  1  0.92155000  0.31954000  0.71118000  1.0
  H  H18  1  0.42154000  0.18044000  0.71117000  1.0
  H  H19  1  0.07846000  0.68045000  0.28882000  1.0
  H  H20  1  0.54202000  0.83293000  0.16087000  1.0
  H  H21  1  0.95798000  0.33291000  0.83913000  1.0
  H  H22  1  0.45798000  0.16707000  0.83913000  1.0
  H  H23  1  0.04198000  0.66710000  0.16086000  1.0
  H  H24  1  0.42273000  0.68048000  0.71076000  1.0
  H  H25  1  0.07729000  0.18049000  0.28923000  1.0
  H  H26  1  0.57727000  0.31950000  0.28923000  1.0
  H  H27  1  0.92274000  0.81951000  0.71077000  1.0
  H  H28  1  0.45822000  0.66772000  0.83881000  1.0
  H  H29  1  0.04175000  0.16774000  0.16119000  1.0
  H  H30  1  0.54173000  0.33226000  0.16119000  1.0
  H  H31  1  0.95827000  0.83226000  0.83881000  1.0
  H  H32  1  0.07735000  0.56879000  0.78922000  1.0
  H  H33  1  0.42264000  0.06880000  0.21079000  1.0
  H  H34  1  0.92262000  0.43123000  0.21079000  1.0
  H  H35  1  0.57738000  0.93119000  0.78921000  1.0
  H  H36  1  0.04169000  0.58129000  0.66126000  1.0
  H  H37  1  0.45832000  0.08129000  0.33874000  1.0
  H  H38  1  0.95834000  0.41872000  0.33874000  1.0
  H  H39  1  0.54171000  0.91871000  0.66126000  1.0
  H  H40  1  0.24578000  0.61035000  0.50824000  1.0
  H  H41  1  0.25423000  0.11036000  0.49177000  1.0
  H  H42  1  0.75423000  0.38965000  0.49177000  1.0
  H  H43  1  0.74579000  0.88964000  0.50824000  1.0
  H  H44  1  0.74989000  0.35950000  0.00002000  1.0
  H  H45  1  0.75008000  0.85949000  0.99998000  1.0
  H  H46  1  0.25006000  0.64052000  0.99998000  1.0
  H  H47  1  0.24992000  0.14052000  0.00002000  1.0
  C  C48  1  0.22936000  0.88133000  0.17857000  1.0
  C  C49  1  0.27063000  0.38132000  0.82144000  1.0
  C  C50  1  0.77064000  0.11866000  0.82143000  1.0
  C  C51  1  0.72933000  0.61867000  0.17856000  1.0
  C  C52  1  0.06484000  0.90568000  0.22867000  1.0
  C  C53  1  0.43515000  0.40569000  0.77134000  1.0
  C  C54  1  0.93517000  0.09430000  0.77133000  1.0
  C  C55  1  0.56482000  0.59431000  0.22867000  1.0
  C  C56  1  0.08583000  0.89942000  0.29966000  1.0
  C  C57  1  0.41420000  0.39942000  0.70034000  1.0
  C  C58  1  0.91419000  0.10057000  0.70034000  1.0
  C  C59  1  0.58583000  0.60058000  0.29966000  1.0
  C  C60  1  0.27128000  0.86831000  0.32137000  1.0
  C  C61  1  0.22875000  0.36831000  0.67863000  1.0
  C  C62  1  0.72874000  0.13168000  0.67863000  1.0
  C  C63  1  0.77126000  0.63169000  0.32136000  1.0
  C  C64  1  0.43580000  0.84404000  0.27126000  1.0
  C  C65  1  0.06421000  0.34405000  0.72874000  1.0
  C  C66  1  0.56420000  0.15595000  0.72873000  1.0
  C  C67  1  0.93580000  0.65597000  0.27125000  1.0
  C  C68  1  0.41482000  0.85032000  0.20029000  1.0
  C  C69  1  0.08519000  0.35030000  0.79971000  1.0
  C  C70  1  0.58519000  0.14968000  0.79971000  1.0
  C  C71  1  0.91478000  0.64970000  0.20028000  1.0
  C  C72  1  0.21491000  0.89962000  0.10272000  1.0
  C  C73  1  0.28507000  0.39961000  0.89729000  1.0
  C  C74  1  0.78509000  0.10038000  0.89728000  1.0
  C  C75  1  0.71488000  0.60039000  0.10272000  1.0
  C  C76  1  0.28574000  0.84980000  0.39719000  1.0
  C  C77  1  0.21428000  0.34979000  0.60281000  1.0
  C  C78  1  0.71427000  0.15020000  0.60281000  1.0
  C  C79  1  0.78575000  0.65021000  0.39719000  1.0
  C  C80  1  0.72957000  0.63089000  0.67852000  1.0
  C  C81  1  0.77042000  0.13088000  0.32147000  1.0
  C  C82  1  0.27042000  0.36912000  0.32147000  1.0
  C  C83  1  0.22960000  0.86912000  0.67853000  1.0
  C  C84  1  0.56504000  0.65578000  0.72848000  1.0
  C  C85  1  0.93498000  0.15578000  0.27151000  1.0
  C  C86  1  0.43496000  0.34422000  0.27151000  1.0
  C  C87  1  0.06504000  0.84422000  0.72849000  1.0
  C  C88  1  0.58557000  0.64985000  0.79952000  1.0
  C  C89  1  0.91441000  0.14985000  0.20047000  1.0
  C  C90  1  0.41440000  0.35015000  0.20048000  1.0
  C  C91  1  0.08561000  0.85014000  0.79953000  1.0
  C  C92  1  0.77060000  0.61856000  0.82145000  1.0
  C  C93  1  0.72939000  0.11856000  0.17855000  1.0
  C  C94  1  0.22938000  0.38145000  0.17855000  1.0
  C  C95  1  0.27063000  0.88144000  0.82145000  1.0
  C  C96  1  0.93513000  0.59361000  0.77148000  1.0
  C  C97  1  0.56486000  0.09362000  0.22851000  1.0
  C  C98  1  0.06483000  0.40639000  0.22851000  1.0
  C  C99  1  0.43516000  0.90638000  0.77149000  1.0
  C  C100  1  0.91450000  0.59953000  0.70048000  1.0
  C  C101  1  0.58549000  0.09953000  0.29952000  1.0
  C  C102  1  0.08549000  0.40048000  0.29953000  1.0
  C  C103  1  0.41453000  0.90047000  0.70048000  1.0
  C  C104  1  0.71562000  0.64895000  0.60262000  1.0
  C  C105  1  0.78439000  0.14896000  0.39738000  1.0
  C  C106  1  0.28441000  0.35104000  0.39738000  1.0
  C  C107  1  0.21563000  0.85104000  0.60262000  1.0
  C  C108  1  0.78484000  0.60042000  0.89734000  1.0
  C  C109  1  0.71515000  0.10041000  0.10267000  1.0
  C  C110  1  0.21513000  0.39959000  0.10266000  1.0
  C  C111  1  0.28487000  0.89958000  0.89733000  1.0
  O  O112  1  0.24988000  0.68455000  0.50013000  1.0
  O  O113  1  0.25014000  0.18456000  0.49986000  1.0
  O  O114  1  0.75014000  0.31545000  0.49986000  1.0
  O  O115  1  0.74987000  0.81544000  0.50014000  1.0
  O  O116  1  0.74997000  0.43464000  0.00000000  1.0
  O  O117  1  0.75001000  0.93463000  0.00001000  1.0
  O  O118  1  0.24999000  0.56537000  0.00001000  1.0
  O  O119  1  0.24999000  0.06537000  1.00000000  1.0
  O  O120  1  0.04312000  0.92525000  0.08465000  1.0
  O  O121  1  0.45685000  0.42525000  0.91535000  1.0
  O  O122  1  0.95688000  0.07475000  0.91535000  1.0
  O  O123  1  0.54310000  0.57476000  0.08465000  1.0
  O  O124  1  0.37865000  0.89340000  0.06055000  1.0
  O  O125  1  0.12132000  0.39341000  0.93946000  1.0
  O  O126  1  0.62135000  0.10660000  0.93945000  1.0
  O  O127  1  0.87860000  0.60660000  0.06055000  1.0
  O  O128  1  0.12241000  0.85667000  0.43946000  1.0
  O  O129  1  0.37761000  0.35668000  0.56055000  1.0
  O  O130  1  0.87760000  0.14333000  0.56054000  1.0
  O  O131  1  0.62240000  0.64332000  0.43946000  1.0
  O  O132  1  0.45712000  0.82345000  0.41519000  1.0
  O  O133  1  0.04289000  0.32345000  0.58481000  1.0
  O  O134  1  0.54290000  0.17655000  0.58481000  1.0
  O  O135  1  0.95713000  0.67655000  0.41518000  1.0
  O  O136  1  0.54368000  0.67403000  0.58439000  1.0
  O  O137  1  0.95633000  0.17404000  0.41561000  1.0
  O  O138  1  0.45634000  0.32597000  0.41561000  1.0
  O  O139  1  0.04369000  0.82596000  0.58439000  1.0
  O  O140  1  0.87991000  0.64338000  0.56066000  1.0
  O  O141  1  0.62010000  0.14338000  0.43934000  1.0
  O  O142  1  0.12011000  0.35662000  0.43934000  1.0
  O  O143  1  0.37992000  0.85662000  0.56066000  1.0
  O  O144  1  0.62098000  0.60672000  0.93946000  1.0
  O  O145  1  0.87900000  0.10673000  0.06054000  1.0
  O  O146  1  0.37898000  0.39328000  0.06055000  1.0
  O  O147  1  0.12101000  0.89327000  0.93946000  1.0
  O  O148  1  0.95656000  0.57479000  0.91542000  1.0
  O  O149  1  0.54342000  0.07479000  0.08459000  1.0
  O  O150  1  0.04341000  0.42522000  0.08459000  1.0
  O  O151  1  0.45659000  0.92520000  0.91542000  1.0
