# generated using pymatgen
data_Ag2H12C18SN2O7
_symmetry_space_group_name_H-M   'P 1'
_cell_length_a   8.12770000
_cell_length_b   10.54300000
_cell_length_c   11.26780000
_cell_angle_alpha   105.09500000
_cell_angle_beta   97.14910000
_cell_angle_gamma   101.58900000
_symmetry_Int_Tables_number   1
_chemical_formula_structural   Ag2H12C18SN2O7
_chemical_formula_sum   'Ag4 H24 C36 S2 N4 O14'
_cell_volume   897.13039911
_cell_formula_units_Z   2
loop_
 _symmetry_equiv_pos_site_id
 _symmetry_equiv_pos_as_xyz
  1  'x, y, z'
loop_
 _atom_site_type_symbol
 _atom_site_label
 _atom_site_symmetry_multiplicity
 _atom_site_fract_x
 _atom_site_fract_y
 _atom_site_fract_z
 _atom_site_occupancy
  Ag  Ag0  1  0.87695000  0.06167000  0.96059000  1.0
  Ag  Ag1  1  0.12306000  0.93832000  0.03941000  1.0
  Ag  Ag2  1  0.11620000  0.38032000  0.00345000  1.0
  Ag  Ag3  1  0.88380000  0.61968000  0.99655000  1.0
  H  H4  1  0.53081000  0.90094000  0.76514000  1.0
  H  H5  1  0.46919000  0.09907000  0.23487000  1.0
  H  H6  1  0.39916000  0.71121000  0.34564000  1.0
  H  H7  1  0.60084000  0.28880000  0.65437000  1.0
  H  H8  1  0.81247000  0.02309000  0.60014000  1.0
  H  H9  1  0.18754000  0.97691000  0.39987000  1.0
  H  H10  1  0.93323000  0.06496000  0.41764000  1.0
  H  H11  1  0.06678000  0.93504000  0.58237000  1.0
  H  H12  1  0.84346000  0.29360000  0.15387000  1.0
  H  H13  1  0.15653000  0.70641000  0.84612000  1.0
  H  H14  1  0.83353000  0.29969000  0.37263000  1.0
  H  H15  1  0.16646000  0.70031000  0.62736000  1.0
  H  H16  1  0.38720000  0.41349000  0.44827000  1.0
  H  H17  1  0.61279000  0.58651000  0.55173000  1.0
  H  H18  1  0.37265000  0.40427000  0.22410000  1.0
  H  H19  1  0.62734000  0.59573000  0.77590000  1.0
  H  H20  1  0.37336000  0.48927000  0.63535000  1.0
  H  H21  1  0.62663000  0.51072000  0.36464000  1.0
  H  H22  1  0.36334000  0.49977000  0.85673000  1.0
  H  H23  1  0.63666000  0.50022000  0.14326000  1.0
  H  H24  1  0.85755000  0.28029000  0.76480000  1.0
  H  H25  1  0.14246000  0.71970000  0.23520000  1.0
  H  H26  1  0.84562000  0.26120000  0.53967000  1.0
  H  H27  1  0.15438000  0.73879000  0.46033000  1.0
  C  C28  1  0.81754000  0.95360000  0.17771000  1.0
  C  C29  1  0.18246000  0.04640000  0.82230000  1.0
  C  C30  1  0.72913000  0.91997000  0.27944000  1.0
  C  C31  1  0.27087000  0.08004000  0.72056000  1.0
  C  C32  1  0.57557000  0.82122000  0.25913000  1.0
  C  C33  1  0.42444000  0.17879000  0.74088000  1.0
  C  C34  1  0.51301000  0.79265000  0.36165000  1.0
  C  C35  1  0.48699000  0.20736000  0.63836000  1.0
  C  C36  1  0.59581000  0.86526000  0.48438000  1.0
  C  C37  1  0.40419000  0.13474000  0.51563000  1.0
  C  C38  1  0.74644000  0.96660000  0.50497000  1.0
  C  C39  1  0.25357000  0.03340000  0.49504000  1.0
  C  C40  1  0.81264000  0.99063000  0.40292000  1.0
  C  C41  1  0.18737000  0.00937000  0.59709000  1.0
  C  C42  1  0.52141000  0.83257000  0.58935000  1.0
  C  C43  1  0.47860000  0.16744000  0.41065000  1.0
  C  C44  1  0.96127000  0.32012000  0.22248000  1.0
  C  C45  1  0.03873000  0.67988000  0.77751000  1.0
  C  C46  1  0.95761000  0.32280000  0.34582000  1.0
  C  C47  1  0.04238000  0.67720000  0.65418000  1.0
  C  C48  1  0.11108000  0.36000000  0.43267000  1.0
  C  C49  1  0.88892000  0.64000000  0.56732000  1.0
  C  C50  1  0.26340000  0.38859000  0.38746000  1.0
  C  C51  1  0.73660000  0.61141000  0.61253000  1.0
  C  C52  1  0.25743000  0.38264000  0.26265000  1.0
  C  C53  1  0.74257000  0.61736000  0.73735000  1.0
  C  C54  1  0.11164000  0.36993000  0.56584000  1.0
  C  C55  1  0.88834000  0.63007000  0.43416000  1.0
  C  C56  1  0.25695000  0.43857000  0.65854000  1.0
  C  C57  1  0.74304000  0.56143000  0.34145000  1.0
  C  C58  1  0.25184000  0.44713000  0.78302000  1.0
  C  C59  1  0.74816000  0.55286000  0.21697000  1.0
  C  C60  1  0.96874000  0.32443000  0.73113000  1.0
  C  C61  1  0.03126000  0.67556000  0.26886000  1.0
  C  C62  1  0.96447000  0.31333000  0.60550000  1.0
  C  C63  1  0.03552000  0.68666000  0.39450000  1.0
  S  S64  1  0.45262000  0.72540000  0.10525000  1.0
  S  S65  1  0.54738000  0.27459000  0.89475000  1.0
  N  N66  1  0.10847000  0.35139000  0.18133000  1.0
  N  N67  1  0.89153000  0.64862000  0.81867000  1.0
  N  N68  1  0.11004000  0.39018000  0.81879000  1.0
  N  N69  1  0.88996000  0.60981000  0.18120000  1.0
  O  O70  1  0.74816000  0.01449000  0.11011000  1.0
  O  O71  1  0.25184000  0.98551000  0.88989000  1.0
  O  O72  1  0.96123000  0.92256000  0.17726000  1.0
  O  O73  1  0.03877000  0.07744000  0.82274000  1.0
  O  O74  1  0.57363000  0.71207000  0.01966000  1.0
  O  O75  1  0.42637000  0.28793000  0.98035000  1.0
  O  O76  1  0.33082000  0.80492000  0.07785000  1.0
  O  O77  1  0.66918000  0.19508000  0.92215000  1.0
  O  O78  1  0.36708000  0.59666000  0.12311000  1.0
  O  O79  1  0.63292000  0.40334000  0.87691000  1.0
  O  O80  1  0.40435000  0.73273000  0.57708000  1.0
  O  O81  1  0.59564000  0.26727000  0.42293000  1.0
  O  O82  1  0.59404000  0.92340000  0.70151000  1.0
  O  O83  1  0.40596000  0.07659000  0.29850000  1.0
