# generated using pymatgen
data_Co3H34C54(NO3)4
_symmetry_space_group_name_H-M   'P 1'
_cell_length_a   13.91480000
_cell_length_b   23.31390000
_cell_length_c   25.50620000
_cell_angle_alpha   65.13690000
_cell_angle_beta   74.16750000
_cell_angle_gamma   72.63030000
_symmetry_Int_Tables_number   1
_chemical_formula_structural   Co3H34C54(NO3)4
_chemical_formula_sum   'Co12 H136 C216 N16 O48'
_cell_volume   7060.71920913
_cell_formula_units_Z   4
loop_
 _symmetry_equiv_pos_site_id
 _symmetry_equiv_pos_as_xyz
  1  'x, y, z'
loop_
 _atom_site_type_symbol
 _atom_site_label
 _atom_site_symmetry_multiplicity
 _atom_site_fract_x
 _atom_site_fract_y
 _atom_site_fract_z
 _atom_site_occupancy
  Co  Co0  1  0.62485000  0.49351000  0.75708000  1.0
  Co  Co1  1  0.54624000  0.59893000  0.83490000  1.0
  Co  Co2  1  0.68550000  0.40012000  0.69018000  1.0
  Co  Co3  1  0.12469000  0.99351000  0.25708000  1.0
  Co  Co4  1  0.01992000  0.09897000  0.33488000  1.0
  Co  Co5  1  0.22440000  0.90009000  0.19019000  1.0
  Co  Co6  1  0.87531000  0.00649000  0.74292000  1.0
  Co  Co7  1  0.98007000  0.90103000  0.66512000  1.0
  Co  Co8  1  0.77559000  0.09991000  0.80981000  1.0
  Co  Co9  1  0.37515000  0.50649000  0.24292000  1.0
  Co  Co10  1  0.45376000  0.40108000  0.16510000  1.0
  Co  Co11  1  0.31449000  0.59988000  0.30982000  1.0
  H  H12  1  0.84619000  0.46163000  0.77951000  1.0
  H  H13  1  0.03487000  0.42533000  0.76570000  1.0
  H  H14  1  0.05956000  0.58892000  0.79576000  1.0
  H  H15  1  0.87061000  0.62551000  0.80774000  1.0
  H  H16  1  0.20939000  0.57500000  0.74011000  1.0
  H  H17  1  0.39722000  0.53410000  0.72611000  1.0
  H  H18  1  0.35380000  0.33939000  0.79370000  1.0
  H  H19  1  0.16527000  0.37916000  0.81013000  1.0
  H  H20  1  0.42785000  0.76228000  0.69932000  1.0
  H  H21  1  0.34915000  0.84758000  0.61436000  1.0
  H  H22  1  0.38157000  0.70359000  0.54304000  1.0
  H  H23  1  0.46428000  0.61969000  0.62666000  1.0
  H  H24  1  0.20922000  0.88752000  0.57349000  1.0
  H  H25  1  0.12452000  0.96913000  0.49047000  1.0
  H  H26  1  0.31827000  0.87291000  0.37616000  1.0
  H  H27  1  0.40432000  0.78979000  0.45920000  1.0
  H  H28  1  0.53052000  0.73607000  0.84599000  1.0
  H  H29  1  0.39737000  0.73049000  0.02944000  1.0
  H  H30  1  0.27384000  0.91990000  0.05715000  1.0
  H  H31  1  0.39552000  0.76557000  0.20024000  1.0
  H  H32  1  0.46664000  0.73257000  0.10225000  1.0
  H  H33  1  0.39068000  0.93477000  0.96420000  1.0
  H  H34  1  0.40929000  0.94067000  0.86221000  1.0
  H  H35  1  0.42055000  0.84225000  0.84368000  1.0
  H  H36  1  0.31675000  0.67553000  0.00191000  1.0
  H  H37  1  0.37744000  0.58334000  0.94964000  1.0
  H  H38  1  0.83685000  0.22713000  0.80999000  1.0
  H  H39  1  0.90436000  0.14002000  0.89658000  1.0
  H  H40  1  0.86328000  0.27997000  0.97442000  1.0
  H  H41  1  0.78744000  0.36641000  0.88881000  1.0
  H  H42  1  0.02892000  0.09343000  0.94518000  1.0
  H  H43  1  0.83893000  0.19666000  0.05609000  1.0
  H  H44  1  0.10720000  0.01025000  0.03002000  1.0
  H  H45  1  0.92195000  0.11397000  0.14009000  1.0
  H  H46  1  0.91293000  0.96156000  0.27948000  1.0
  H  H47  1  0.77439000  0.92517000  0.26574000  1.0
  H  H48  1  0.55588000  0.08877000  0.29574000  1.0
  H  H49  1  0.69619000  0.12542000  0.30767000  1.0
  H  H50  1  0.47573000  0.07484000  0.24011000  1.0
  H  H51  1  0.34272000  0.03399000  0.22616000  1.0
  H  H52  1  0.51327000  0.83923000  0.29375000  1.0
  H  H53  1  0.64566000  0.87900000  0.31013000  1.0
  H  H54  1  0.11082000  0.26234000  0.19931000  1.0
  H  H55  1  0.18935000  0.34752000  0.11436000  1.0
  H  H56  1  0.37194000  0.20345000  0.04304000  1.0
  H  H57  1  0.28939000  0.11965000  0.12671000  1.0
  H  H58  1  0.32987000  0.38745000  0.07342000  1.0
  H  H59  1  0.41594000  0.46906000  0.99044000  1.0
  H  H60  1  0.43274000  0.37293000  0.87605000  1.0
  H  H61  1  0.34682000  0.28976000  0.95910000  1.0
  H  H62  1  0.88758000  0.23620000  0.34600000  1.0
  H  H63  1  0.84271000  0.23057000  0.52955000  1.0
  H  H64  1  0.74896000  0.42003000  0.55711000  1.0
  H  H65  1  0.63860000  0.26572000  0.70025000  1.0
  H  H66  1  0.69849000  0.23268000  0.60229000  1.0
  H  H67  1  0.71008000  0.43481000  0.46413000  1.0
  H  H68  1  0.78769000  0.44061000  0.36219000  1.0
  H  H69  1  0.89355000  0.34218000  0.34375000  1.0
  H  H70  1  0.00594000  0.17543000  0.50197000  1.0
  H  H71  1  0.08984000  0.08337000  0.44955000  1.0
  H  H72  1  0.12604000  0.72725000  0.30996000  1.0
  H  H73  1  0.05911000  0.64008000  0.39650000  1.0
  H  H74  1  0.88232000  0.77995000  0.47444000  1.0
  H  H75  1  0.95718000  0.86644000  0.38885000  1.0
  H  H76  1  0.93233000  0.59352000  0.44513000  1.0
  H  H77  1  0.90842000  0.69667000  0.55608000  1.0
  H  H78  1  0.85246000  0.51031000  0.53002000  1.0
  H  H79  1  0.82406000  0.61400000  0.64009000  1.0
  H  H80  1  0.08707000  0.03844000  0.72052000  1.0
  H  H81  1  0.22561000  0.07483000  0.73426000  1.0
  H  H82  1  0.44412000  0.91123000  0.70426000  1.0
  H  H83  1  0.30380000  0.87458000  0.69233000  1.0
  H  H84  1  0.52427000  0.92516000  0.75989000  1.0
  H  H85  1  0.65728000  0.96601000  0.77384000  1.0
  H  H86  1  0.48673000  0.16076000  0.70625000  1.0
  H  H87  1  0.35434000  0.12100000  0.68987000  1.0
  H  H88  1  0.88919000  0.73767000  0.80069000  1.0
  H  H89  1  0.81065000  0.65248000  0.88564000  1.0
  H  H90  1  0.62806000  0.79655000  0.95696000  1.0
  H  H91  1  0.71061000  0.88035000  0.87329000  1.0
  H  H92  1  0.67014000  0.61255000  0.92658000  1.0
  H  H93  1  0.58406000  0.53094000  0.00957000  1.0
  H  H94  1  0.56726000  0.62707000  0.12395000  1.0
  H  H95  1  0.65318000  0.71024000  0.04090000  1.0
  H  H96  1  0.11242000  0.76380000  0.65400000  1.0
  H  H97  1  0.15729000  0.76943000  0.47045000  1.0
  H  H98  1  0.25105000  0.57996000  0.44289000  1.0
  H  H99  1  0.36140000  0.73428000  0.29975000  1.0
  H  H100  1  0.30151000  0.76731000  0.39771000  1.0
  H  H101  1  0.28992000  0.56519000  0.53587000  1.0
  H  H102  1  0.21231000  0.55939000  0.63782000  1.0
  H  H103  1  0.10645000  0.65782000  0.65625000  1.0
  H  H104  1  0.99407000  0.82457000  0.49803000  1.0
  H  H105  1  0.91016000  0.91663000  0.55045000  1.0
  H  H106  1  0.87395000  0.27275000  0.69005000  1.0
  H  H107  1  0.94088000  0.35992000  0.60350000  1.0
  H  H108  1  0.11768000  0.22005000  0.52556000  1.0
  H  H109  1  0.04282000  0.13356000  0.61115000  1.0
  H  H110  1  0.06767000  0.40648000  0.55487000  1.0
  H  H111  1  0.09157000  0.30333000  0.44393000  1.0
  H  H112  1  0.14754000  0.48969000  0.46998000  1.0
  H  H113  1  0.17593000  0.38600000  0.35991000  1.0
  H  H114  1  0.15381000  0.53837000  0.22049000  1.0
  H  H115  1  0.96513000  0.57467000  0.23429000  1.0
  H  H116  1  0.94044000  0.41108000  0.20423000  1.0
  H  H117  1  0.12939000  0.37449000  0.19225000  1.0
  H  H118  1  0.79061000  0.42501000  0.25989000  1.0
  H  H119  1  0.60278000  0.46590000  0.27389000  1.0
  H  H120  1  0.64620000  0.66061000  0.20630000  1.0
  H  H121  1  0.83473000  0.62085000  0.18987000  1.0
  H  H122  1  0.57216000  0.23772000  0.30068000  1.0
  H  H123  1  0.65084000  0.15242000  0.38564000  1.0
  H  H124  1  0.61843000  0.29641000  0.45696000  1.0
  H  H125  1  0.53572000  0.38031000  0.37334000  1.0
  H  H126  1  0.79078000  0.11248000  0.42651000  1.0
  H  H127  1  0.87548000  0.03087000  0.50953000  1.0
  H  H128  1  0.68172000  0.12708000  0.62385000  1.0
  H  H129  1  0.59568000  0.21021000  0.54080000  1.0
  H  H130  1  0.46948000  0.26393000  0.15401000  1.0
  H  H131  1  0.60263000  0.26951000  0.97056000  1.0
  H  H132  1  0.72616000  0.08010000  0.94285000  1.0
  H  H133  1  0.60447000  0.23442000  0.79977000  1.0
  H  H134  1  0.53336000  0.26743000  0.89775000  1.0
  H  H135  1  0.60932000  0.06523000  0.03580000  1.0
  H  H136  1  0.59071000  0.05933000  0.13779000  1.0
  H  H137  1  0.57945000  0.15775000  0.15632000  1.0
  H  H138  1  0.68325000  0.32447000  0.99809000  1.0
  H  H139  1  0.62255000  0.41666000  0.05036000  1.0
  H  H140  1  0.16315000  0.77287000  0.19000000  1.0
  H  H141  1  0.09564000  0.85998000  0.10342000  1.0
  H  H142  1  0.13673000  0.72003000  0.02558000  1.0
  H  H143  1  0.21257000  0.63359000  0.11119000  1.0
  H  H144  1  0.97107000  0.90657000  0.05483000  1.0
  H  H145  1  0.16107000  0.80334000  0.94391000  1.0
  H  H146  1  0.89279000  0.98975000  0.96998000  1.0
  H  H147  1  0.07805000  0.88603000  0.85991000  1.0
  C  C148  1  0.73465000  0.56442000  0.80710000  1.0
  C  C149  1  0.84703000  0.54527000  0.79526000  1.0
  C  C150  1  0.89380000  0.48909000  0.78287000  1.0
  C  C151  1  0.99942000  0.46884000  0.77574000  1.0
  C  C152  1  0.06134000  0.50382000  0.78057000  1.0
  C  C153  1  0.01346000  0.56129000  0.79119000  1.0
  C  C154  1  0.90779000  0.58164000  0.79864000  1.0
  C  C155  1  0.17305000  0.48024000  0.77473000  1.0
  C  C156  1  0.24015000  0.52311000  0.75248000  1.0
  C  C157  1  0.34552000  0.50072000  0.74408000  1.0
  C  C158  1  0.38650000  0.43434000  0.75822000  1.0
  C  C159  1  0.49780000  0.40894000  0.74547000  1.0
  C  C160  1  0.32064000  0.39090000  0.78233000  1.0
  C  C161  1  0.21556000  0.41352000  0.79061000  1.0
  C  C162  1  0.49852000  0.63432000  0.71874000  1.0
  C  C163  1  0.45105000  0.68579000  0.66811000  1.0
  C  C164  1  0.41773000  0.75017000  0.66456000  1.0
  C  C165  1  0.37337000  0.79749000  0.61729000  1.0
  C  C166  1  0.36021000  0.78189000  0.57239000  1.0
  C  C167  1  0.39338000  0.71711000  0.57652000  1.0
  C  C168  1  0.43858000  0.66982000  0.62347000  1.0
  C  C169  1  0.31200000  0.83196000  0.52263000  1.0
  C  C170  1  0.23420000  0.88404000  0.53028000  1.0
  C  C171  1  0.18642000  0.92998000  0.48373000  1.0
  C  C172  1  0.21555000  0.92575000  0.42808000  1.0
  C  C173  1  0.16422000  0.97429000  0.37764000  1.0
  C  C174  1  0.29440000  0.87475000  0.41991000  1.0
  C  C175  1  0.34172000  0.82851000  0.46647000  1.0
  C  C176  1  0.47842000  0.70750000  0.87971000  1.0
  C  C177  1  0.41179000  0.78055000  0.93548000  1.0
  C  C178  1  0.39996000  0.77650000  0.99293000  1.0
  C  C179  1  0.39116000  0.83244000  0.00280000  1.0
  C  C180  1  0.31902000  0.87484000  0.08253000  1.0
  C  C181  1  0.38168000  0.79335000  0.15577000  1.0
  C  C182  1  0.41748000  0.77617000  0.10768000  1.0
  C  C183  1  0.39507000  0.89173000  0.95599000  1.0
  C  C184  1  0.40635000  0.89477000  0.89892000  1.0
  C  C185  1  0.41440000  0.83947000  0.88818000  1.0
  C  C186  1  0.36872000  0.67386000  0.96206000  1.0
  C  C187  1  0.39857000  0.62931000  0.93585000  1.0
  C  C188  1  0.75959000  0.35332000  0.79420000  1.0
  C  C189  1  0.80633000  0.30192000  0.84468000  1.0
  C  C190  1  0.84159000  0.23822000  0.84656000  1.0
  C  C191  1  0.88030000  0.18958000  0.89519000  1.0
  C  C192  1  0.88693000  0.20329000  0.94269000  1.0
  C  C193  1  0.85417000  0.26786000  0.93937000  1.0
  C  C194  1  0.81335000  0.31645000  0.89139000  1.0
  C  C195  1  0.92931000  0.15201000  0.99395000  1.0
  C  C196  1  0.00369000  0.09791000  0.98795000  1.0
  C  C197  1  0.89887000  0.15636000  0.04979000  1.0
  C  C198  1  0.07465000  0.01087000  0.13982000  1.0
  C  C199  1  0.02063000  0.05754000  0.09015000  1.0
  C  C200  1  0.04847000  0.05136000  0.03532000  1.0
  C  C201  1  0.94414000  0.11008000  0.09711000  1.0
  C  C202  1  0.89394000  0.06442000  0.30704000  1.0
  C  C203  1  0.81263000  0.04523000  0.29516000  1.0
  C  C204  1  0.83449000  0.98902000  0.28281000  1.0
  C  C205  1  0.75629000  0.96872000  0.27571000  1.0
  C  C206  1  0.65450000  0.00368000  0.28052000  1.0
  C  C207  1  0.63421000  0.06115000  0.29116000  1.0
  C  C208  1  0.71206000  0.08155000  0.29856000  1.0
  C  C209  1  0.57221000  0.98007000  0.27471000  1.0
  C  C210  1  0.48447000  0.02295000  0.25248000  1.0
  C  C211  1  0.40987000  0.00059000  0.24411000  1.0
  C  C212  1  0.42113000  0.93421000  0.25825000  1.0
  C  C213  1  0.34788000  0.90887000  0.24553000  1.0
  C  C214  1  0.50629000  0.89075000  0.28237000  1.0
  C  C215  1  0.58051000  0.91335000  0.29062000  1.0
  C  C216  1  0.14835000  0.13438000  0.21872000  1.0
  C  C217  1  0.19516000  0.18580000  0.16812000  1.0
  C  C218  1  0.16779000  0.25017000  0.16456000  1.0
  C  C219  1  0.21224000  0.29743000  0.11730000  1.0
  C  C220  1  0.28576000  0.28182000  0.07236000  1.0
  C  C221  1  0.31316000  0.21703000  0.07651000  1.0
  C  C222  1  0.26823000  0.16978000  0.12350000  1.0
  C  C223  1  0.33360000  0.33189000  0.02254000  1.0
  C  C224  1  0.35160000  0.38396000  0.03021000  1.0
  C  C225  1  0.40000000  0.42990000  0.98368000  1.0
  C  C226  1  0.43073000  0.42573000  0.92801000  1.0
  C  C227  1  0.48400000  0.47428000  0.87763000  1.0
  C  C228  1  0.41104000  0.37474000  0.91981000  1.0
  C  C229  1  0.36344000  0.32847000  0.96637000  1.0
  C  C230  1  0.93454000  0.20758000  0.37971000  1.0
  C  C231  1  0.87223000  0.28054000  0.43558000  1.0
  C  C232  1  0.83059000  0.27655000  0.49301000  1.0
  C  C233  1  0.77345000  0.33252000  0.50282000  1.0
  C  C234  1  0.72344000  0.37498000  0.58250000  1.0
  C  C235  1  0.66912000  0.29349000  0.65578000  1.0
  C  C236  1  0.69859000  0.27629000  0.60770000  1.0
  C  C237  1  0.75695000  0.39174000  0.45597000  1.0
  C  C238  1  0.79981000  0.39472000  0.39892000  1.0
  C  C239  1  0.85794000  0.33942000  0.38824000  1.0
  C  C240  1  0.99545000  0.17382000  0.46211000  1.0
  C  C241  1  0.03645000  0.12932000  0.43582000  1.0
  C  C242  1  0.09294000  0.85339000  0.29423000  1.0
  C  C243  1  0.04709000  0.80200000  0.34469000  1.0
  C  C244  1  0.07370000  0.73830000  0.34654000  1.0
  C  C245  1  0.03502000  0.68963000  0.39516000  1.0
  C  C246  1  0.96719000  0.70330000  0.44269000  1.0
  C  C247  1  0.93865000  0.76786000  0.43940000  1.0
  C  C248  1  0.97876000  0.81648000  0.39141000  1.0
  C  C249  1  0.92474000  0.65205000  0.49393000  1.0
  C  C250  1  0.91037000  0.59797000  0.48792000  1.0
  C  C251  1  0.89499000  0.65641000  0.54977000  1.0
  C  C252  1  0.77478000  0.51089000  0.63980000  1.0
  C  C253  1  0.83173000  0.55759000  0.59013000  1.0
  C  C254  1  0.86480000  0.55143000  0.53530000  1.0
  C  C255  1  0.84870000  0.61013000  0.59710000  1.0
  C  C256  1  0.10606000  0.93558000  0.69296000  1.0
  C  C257  1  0.18737000  0.95477000  0.70484000  1.0
  C  C258  1  0.16551000  0.01098000  0.71719000  1.0
  C  C259  1  0.24371000  0.03128000  0.72429000  1.0
  C  C260  1  0.34549000  0.99632000  0.71948000  1.0
  C  C261  1  0.36579000  0.93885000  0.70884000  1.0
  C  C262  1  0.28793000  0.91845000  0.70144000  1.0
  C  C263  1  0.42778000  0.01992000  0.72529000  1.0
  C  C264  1  0.51552000  0.97705000  0.74752000  1.0
  C  C265  1  0.59013000  0.99941000  0.75589000  1.0
  C  C266  1  0.57887000  0.06579000  0.74175000  1.0
  C  C267  1  0.65212000  0.09112000  0.75447000  1.0
  C  C268  1  0.49371000  0.10925000  0.71763000  1.0
  C  C269  1  0.41949000  0.08665000  0.70938000  1.0
  C  C270  1  0.85165000  0.86563000  0.78128000  1.0
  C  C271  1  0.80485000  0.81420000  0.83188000  1.0
  C  C272  1  0.83221000  0.74983000  0.83545000  1.0
  C  C273  1  0.78777000  0.70257000  0.88270000  1.0
  C  C274  1  0.71424000  0.71818000  0.92765000  1.0
  C  C275  1  0.68684000  0.78297000  0.92349000  1.0
  C  C276  1  0.73177000  0.83022000  0.87650000  1.0
  C  C277  1  0.66640000  0.66812000  0.97746000  1.0
  C  C278  1  0.64841000  0.61604000  0.96979000  1.0
  C  C279  1  0.60000000  0.57010000  0.01632000  1.0
  C  C280  1  0.56927000  0.57428000  0.07199000  1.0
  C  C281  1  0.51599000  0.52573000  0.12237000  1.0
  C  C282  1  0.58896000  0.62526000  0.08019000  1.0
  C  C283  1  0.63656000  0.67153000  0.03363000  1.0
  C  C284  1  0.06546000  0.79242000  0.62029000  1.0
  C  C285  1  0.12777000  0.71946000  0.56442000  1.0
  C  C286  1  0.16941000  0.72345000  0.50699000  1.0
  C  C287  1  0.22655000  0.66748000  0.49718000  1.0
  C  C288  1  0.27656000  0.62501000  0.41750000  1.0
  C  C289  1  0.33088000  0.70651000  0.34422000  1.0
  C  C290  1  0.30140000  0.72370000  0.39230000  1.0
  C  C291  1  0.24305000  0.60826000  0.54403000  1.0
  C  C292  1  0.20019000  0.60528000  0.60108000  1.0
  C  C293  1  0.14206000  0.66058000  0.61176000  1.0
  C  C294  1  0.00455000  0.82618000  0.53789000  1.0
  C  C295  1  0.96356000  0.87068000  0.56418000  1.0
  C  C296  1  0.90706000  0.14661000  0.70577000  1.0
  C  C297  1  0.95292000  0.19800000  0.65531000  1.0
  C  C298  1  0.92630000  0.26170000  0.65346000  1.0
  C  C299  1  0.96497000  0.31037000  0.60484000  1.0
  C  C300  1  0.03280000  0.29670000  0.55731000  1.0
  C  C301  1  0.06134000  0.23214000  0.56061000  1.0
  C  C302  1  0.02124000  0.18352000  0.60859000  1.0
  C  C303  1  0.07525000  0.34795000  0.50607000  1.0
  C  C304  1  0.08962000  0.40203000  0.51208000  1.0
  C  C305  1  0.10501000  0.34359000  0.45024000  1.0
  C  C306  1  0.22522000  0.48910000  0.36020000  1.0
  C  C307  1  0.16826000  0.44240000  0.40986000  1.0
  C  C308  1  0.13519000  0.44857000  0.46470000  1.0
  C  C309  1  0.15129000  0.38986000  0.40290000  1.0
  C  C310  1  0.26535000  0.43558000  0.19290000  1.0
  C  C311  1  0.15297000  0.45473000  0.20474000  1.0
  C  C312  1  0.10620000  0.51092000  0.21713000  1.0
  C  C313  1  0.00058000  0.53117000  0.22426000  1.0
  C  C314  1  0.93866000  0.49618000  0.21943000  1.0
  C  C315  1  0.98654000  0.43872000  0.20880000  1.0
  C  C316  1  0.09221000  0.41836000  0.20136000  1.0
  C  C317  1  0.82695000  0.51977000  0.22527000  1.0
  C  C318  1  0.75985000  0.47690000  0.24752000  1.0
  C  C319  1  0.65448000  0.49928000  0.25592000  1.0
  C  C320  1  0.61350000  0.56566000  0.24178000  1.0
  C  C321  1  0.50220000  0.59106000  0.25453000  1.0
  C  C322  1  0.67935000  0.60910000  0.21766000  1.0
  C  C323  1  0.78444000  0.58649000  0.20939000  1.0
  C  C324  1  0.50149000  0.36568000  0.28125000  1.0
  C  C325  1  0.54896000  0.31421000  0.33189000  1.0
  C  C326  1  0.58227000  0.24983000  0.33544000  1.0
  C  C327  1  0.62663000  0.20250000  0.38271000  1.0
  C  C328  1  0.63979000  0.21810000  0.42761000  1.0
  C  C329  1  0.60662000  0.28288000  0.42348000  1.0
  C  C330  1  0.56143000  0.33018000  0.37652000  1.0
  C  C331  1  0.68800000  0.16804000  0.47738000  1.0
  C  C332  1  0.76580000  0.11596000  0.46972000  1.0
  C  C333  1  0.81359000  0.07002000  0.51627000  1.0
  C  C334  1  0.78444000  0.07424000  0.57192000  1.0
  C  C335  1  0.83578000  0.02571000  0.62236000  1.0
  C  C336  1  0.70559000  0.12525000  0.58009000  1.0
  C  C337  1  0.65828000  0.17149000  0.53353000  1.0
  C  C338  1  0.52158000  0.29250000  0.12029000  1.0
  C  C339  1  0.58820000  0.21945000  0.06452000  1.0
  C  C340  1  0.60004000  0.22350000  0.00707000  1.0
  C  C341  1  0.60884000  0.16756000  0.99721000  1.0
  C  C342  1  0.68098000  0.12516000  0.91747000  1.0
  C  C343  1  0.61832000  0.20665000  0.84423000  1.0
  C  C344  1  0.58252000  0.22383000  0.89232000  1.0
  C  C345  1  0.60493000  0.10827000  0.04401000  1.0
  C  C346  1  0.59365000  0.10523000  0.10108000  1.0
  C  C347  1  0.58560000  0.16053000  0.11182000  1.0
  C  C348  1  0.63128000  0.32614000  0.03794000  1.0
  C  C349  1  0.60143000  0.37070000  0.06415000  1.0
  C  C350  1  0.24041000  0.64668000  0.20580000  1.0
  C  C351  1  0.19367000  0.69808000  0.15532000  1.0
  C  C352  1  0.15841000  0.76179000  0.15344000  1.0
  C  C353  1  0.11970000  0.81042000  0.10481000  1.0
  C  C354  1  0.11307000  0.79671000  0.05731000  1.0
  C  C355  1  0.14584000  0.73214000  0.06063000  1.0
  C  C356  1  0.18665000  0.68355000  0.10861000  1.0
  C  C357  1  0.07069000  0.84799000  0.00605000  1.0
  C  C358  1  0.99631000  0.90209000  0.01205000  1.0
  C  C359  1  0.10113000  0.84364000  0.95021000  1.0
  C  C360  1  0.92535000  0.98913000  0.86018000  1.0
  C  C361  1  0.97937000  0.94246000  0.90985000  1.0
  C  C362  1  0.95153000  0.94864000  0.96468000  1.0
  C  C363  1  0.05586000  0.88992000  0.90289000  1.0
  N  N364  1  0.46697000  0.65075000  0.88477000  1.0
  N  N365  1  0.41927000  0.72365000  0.92583000  1.0
  N  N366  1  0.37800000  0.82849000  0.06120000  1.0
  N  N367  1  0.31998000  0.85470000  0.13956000  1.0
  N  N368  1  0.99766000  0.15083000  0.38473000  1.0
  N  N369  1  0.93132000  0.22364000  0.42591000  1.0
  N  N370  1  0.73215000  0.32862000  0.56120000  1.0
  N  N371  1  0.68569000  0.35484000  0.63954000  1.0
  N  N372  1  0.00235000  0.84917000  0.61527000  1.0
  N  N373  1  0.06868000  0.77636000  0.57409000  1.0
  N  N374  1  0.26785000  0.67138000  0.43880000  1.0
  N  N375  1  0.31431000  0.64516000  0.36045000  1.0
  N  N376  1  0.53302000  0.34925000  0.11524000  1.0
  N  N377  1  0.58073000  0.27635000  0.07417000  1.0
  N  N378  1  0.62200000  0.17151000  0.93880000  1.0
  N  N379  1  0.68002000  0.14530000  0.86044000  1.0
  O  O380  1  0.67673000  0.53852000  0.79653000  1.0
  O  O381  1  0.69108000  0.60687000  0.83083000  1.0
  O  O382  1  0.55703000  0.45161000  0.71722000  1.0
  O  O383  1  0.53490000  0.34999000  0.75699000  1.0
  O  O384  1  0.49771000  0.65096000  0.76102000  1.0
  O  O385  1  0.53330000  0.57830000  0.71700000  1.0
  O  O386  1  0.19177000  0.96562000  0.32953000  1.0
  O  O387  1  0.09624000  0.02150000  0.38794000  1.0
  O  O388  1  0.71670000  0.40826000  0.79772000  1.0
  O  O389  1  0.76499000  0.33845000  0.75026000  1.0
  O  O390  1  0.05141000  0.02143000  0.18699000  1.0
  O  O391  1  0.14319000  0.96336000  0.13036000  1.0
  O  O392  1  0.98835000  0.03846000  0.29659000  1.0
  O  O393  1  0.87123000  0.10692000  0.33070000  1.0
  O  O394  1  0.27427000  0.95160000  0.21727000  1.0
  O  O395  1  0.35804000  0.84994000  0.25709000  1.0
  O  O396  1  0.08997000  0.15107000  0.26091000  1.0
  O  O397  1  0.17145000  0.07833000  0.21702000  1.0
  O  O398  1  0.51324000  0.46565000  0.82949000  1.0
  O  O399  1  0.49459000  0.52140000  0.88800000  1.0
  O  O400  1  0.07747000  0.90827000  0.29781000  1.0
  O  O401  1  0.14628000  0.83855000  0.25025000  1.0
  O  O402  1  0.74018000  0.52148000  0.68695000  1.0
  O  O403  1  0.76340000  0.46332000  0.63037000  1.0
  O  O404  1  0.01165000  0.96154000  0.70341000  1.0
  O  O405  1  0.12877000  0.89308000  0.66929000  1.0
  O  O406  1  0.72573000  0.04840000  0.78273000  1.0
  O  O407  1  0.64195000  0.15006000  0.74291000  1.0
  O  O408  1  0.91003000  0.84893000  0.73909000  1.0
  O  O409  1  0.82856000  0.92167000  0.78298000  1.0
  O  O410  1  0.48677000  0.53435000  0.17051000  1.0
  O  O411  1  0.50538000  0.47861000  0.11200000  1.0
  O  O412  1  0.92253000  0.09172000  0.70219000  1.0
  O  O413  1  0.85372000  0.16144000  0.74976000  1.0
  O  O414  1  0.25982000  0.47852000  0.31305000  1.0
  O  O415  1  0.23659000  0.53668000  0.36963000  1.0
  O  O416  1  0.32327000  0.46148000  0.20347000  1.0
  O  O417  1  0.30892000  0.39313000  0.16918000  1.0
  O  O418  1  0.44297000  0.54839000  0.28278000  1.0
  O  O419  1  0.46510000  0.65001000  0.24301000  1.0
  O  O420  1  0.50230000  0.34905000  0.23897000  1.0
  O  O421  1  0.46671000  0.42169000  0.28300000  1.0
  O  O422  1  0.80823000  0.03438000  0.67047000  1.0
  O  O423  1  0.90376000  0.97850000  0.61205000  1.0
  O  O424  1  0.28330000  0.59175000  0.20228000  1.0
  O  O425  1  0.23501000  0.66156000  0.24974000  1.0
  O  O426  1  0.94859000  0.97856000  0.81301000  1.0
  O  O427  1  0.85681000  0.03664000  0.86964000  1.0
