# generated using pymatgen
data_ZnPH5C5NO3
_symmetry_space_group_name_H-M   'P 1'
_cell_length_a   5.23474000
_cell_length_b   11.22170000
_cell_length_c   13.76550000
_cell_angle_alpha   98.37940000
_cell_angle_beta   89.99990000
_cell_angle_gamma   89.99990000
_symmetry_Int_Tables_number   1
_chemical_formula_structural   ZnPH5C5NO3
_chemical_formula_sum   'Zn4 P4 H20 C20 N4 O12'
_cell_volume   799.99017445
_cell_formula_units_Z   4
loop_
 _symmetry_equiv_pos_site_id
 _symmetry_equiv_pos_as_xyz
  1  'x, y, z'
loop_
 _atom_site_type_symbol
 _atom_site_label
 _atom_site_symmetry_multiplicity
 _atom_site_fract_x
 _atom_site_fract_y
 _atom_site_fract_z
 _atom_site_occupancy
  Zn  Zn0  1  0.27763000  0.43482000  0.10357000  1.0
  Zn  Zn1  1  0.77762000  0.06518000  0.39643000  1.0
  Zn  Zn2  1  0.72238000  0.56518000  0.89643000  1.0
  Zn  Zn3  1  0.22237000  0.93482000  0.60357000  1.0
  P  P4  1  0.21024000  0.66963000  0.99841000  1.0
  P  P5  1  0.71024000  0.83037000  0.50159000  1.0
  P  P6  1  0.78976000  0.33037000  0.00159000  1.0
  P  P7  1  0.28975000  0.16963000  0.49841000  1.0
  H  H8  1  0.30727000  0.78511000  0.03362000  1.0
  H  H9  1  0.80727000  0.71489000  0.46638000  1.0
  H  H10  1  0.69273000  0.21489000  0.96638000  1.0
  H  H11  1  0.19273000  0.28512000  0.53362000  1.0
  H  H12  1  0.46536000  0.58011000  0.28579000  1.0
  H  H13  1  0.96535000  0.91988000  0.21421000  1.0
  H  H14  1  0.53464000  0.41989000  0.71421000  1.0
  H  H15  1  0.03464000  0.08011000  0.78578000  1.0
  H  H16  1  0.34092000  0.62504000  0.46036000  1.0
  H  H17  1  0.84092000  0.87496000  0.03964000  1.0
  H  H18  1  0.65908000  0.37496000  0.53964000  1.0
  H  H19  1  0.15908000  0.12504000  0.96036000  1.0
  H  H20  1  0.76579000  0.34481000  0.40125000  1.0
  H  H21  1  0.26579000  0.15518000  0.09875000  1.0
  H  H22  1  0.23421000  0.65518000  0.59875000  1.0
  H  H23  1  0.73420000  0.84482000  0.90125000  1.0
  H  H24  1  0.90717000  0.31775000  0.22758000  1.0
  H  H25  1  0.40717000  0.18225000  0.27242000  1.0
  H  H26  1  0.09283000  0.68225000  0.77242000  1.0
  H  H27  1  0.59283000  0.81775000  0.72758000  1.0
  C  C28  1  0.31210000  0.52974000  0.31493000  1.0
  C  C29  1  0.81209000  0.97026000  0.18507000  1.0
  C  C30  1  0.68790000  0.47026000  0.68507000  1.0
  C  C31  1  0.18791000  0.02974000  0.81493000  1.0
  C  C32  1  0.24240000  0.55320000  0.41312000  1.0
  C  C33  1  0.74239000  0.94680000  0.08688000  1.0
  C  C34  1  0.75760000  0.44680000  0.58688000  1.0
  C  C35  1  0.25761000  0.05320000  0.91312000  1.0
  C  C36  1  0.04109000  0.48814000  0.44796000  1.0
  C  C37  1  0.54108000  0.01186000  0.05204000  1.0
  C  C38  1  0.95892000  0.51185000  0.55204000  1.0
  C  C39  1  0.45892000  0.98814000  0.94796000  1.0
  C  C40  1  0.92077000  0.40037000  0.37988000  1.0
  C  C41  1  0.42077000  0.09963000  0.12012000  1.0
  C  C42  1  0.07923000  0.59963000  0.62012000  1.0
  C  C43  1  0.57923000  0.90037000  0.87988000  1.0
  C  C44  1  0.00107000  0.38263000  0.28271000  1.0
  C  C45  1  0.50107000  0.11737000  0.21729000  1.0
  C  C46  1  0.99893000  0.61737000  0.71729000  1.0
  C  C47  1  0.49893000  0.88263000  0.78271000  1.0
  N  N48  1  0.19332000  0.44614000  0.25019000  1.0
  N  N49  1  0.69332000  0.05386000  0.24981000  1.0
  N  N50  1  0.80668000  0.55386000  0.74981000  1.0
  N  N51  1  0.30668000  0.94614000  0.75019000  1.0
  O  O52  1  0.22442000  0.60104000  0.08646000  1.0
  O  O53  1  0.72443000  0.89896000  0.41354000  1.0
  O  O54  1  0.77558000  0.39896000  0.91354000  1.0
  O  O55  1  0.27556000  0.10105000  0.58646000  1.0
  O  O56  1  0.93449000  0.69364000  0.96602000  1.0
  O  O57  1  0.43449000  0.80636000  0.53398000  1.0
  O  O58  1  0.06551000  0.30636000  0.03398000  1.0
  O  O59  1  0.56550000  0.19364000  0.46602000  1.0
  O  O60  1  0.36803000  0.61530000  0.90869000  1.0
  O  O61  1  0.86803000  0.88470000  0.59131000  1.0
  O  O62  1  0.63198000  0.38470000  0.09131000  1.0
  O  O63  1  0.13197000  0.11530000  0.40869000  1.0
