# generated using pymatgen
data_UH14C22O7
_symmetry_space_group_name_H-M   'P 1'
_cell_length_a   9.91741000
_cell_length_b   9.91738000
_cell_length_c   10.82970000
_cell_angle_alpha   79.19180000
_cell_angle_beta   79.19220000
_cell_angle_gamma   69.90240000
_symmetry_Int_Tables_number   1
_chemical_formula_structural   UH14C22O7
_chemical_formula_sum   'U2 H28 C44 O14'
_cell_volume   973.76362492
_cell_formula_units_Z   2
loop_
 _symmetry_equiv_pos_site_id
 _symmetry_equiv_pos_as_xyz
  1  'x, y, z'
loop_
 _atom_site_type_symbol
 _atom_site_label
 _atom_site_symmetry_multiplicity
 _atom_site_fract_x
 _atom_site_fract_y
 _atom_site_fract_z
 _atom_site_occupancy
  U  U0  1  0.42438000  0.57561000  0.25000000  1.0
  U  U1  1  0.57562000  0.42438000  0.75000000  1.0
  H  H2  1  0.16675000  0.87010000  0.17532000  1.0
  H  H3  1  0.12992000  0.83326000  0.32469000  1.0
  H  H4  1  0.83325000  0.12990000  0.82468000  1.0
  H  H5  1  0.87009000  0.16674000  0.67531000  1.0
  H  H6  1  0.28730000  0.24440000  0.88320000  1.0
  H  H7  1  0.75559000  0.71270000  0.61680000  1.0
  H  H8  1  0.71269000  0.75560000  0.11679000  1.0
  H  H9  1  0.24440000  0.28731000  0.38320000  1.0
  H  H10  1  0.07047000  0.51121000  0.23044000  1.0
  H  H11  1  0.48880000  0.92954000  0.26955000  1.0
  H  H12  1  0.92954000  0.48879000  0.76956000  1.0
  H  H13  1  0.51121000  0.07047000  0.73045000  1.0
  H  H14  1  0.86282000  0.51631000  0.40164000  1.0
  H  H15  1  0.48370000  0.13719000  0.09836000  1.0
  H  H16  1  0.13719000  0.48369000  0.59837000  1.0
  H  H17  1  0.51631000  0.86281000  0.90164000  1.0
  H  H18  1  0.22489000  0.41052000  0.04500000  1.0
  H  H19  1  0.58947000  0.77512000  0.45500000  1.0
  H  H20  1  0.77512000  0.58947000  0.95499000  1.0
  H  H21  1  0.41052000  0.22488000  0.54500000  1.0
  H  H22  1  0.93090000  0.08842000  0.05654000  1.0
  H  H23  1  0.91157000  0.06910000  0.44347000  1.0
  H  H24  1  0.06910000  0.91157000  0.94347000  1.0
  H  H25  1  0.08842000  0.93090000  0.55653000  1.0
  H  H26  1  0.14083000  0.08458000  0.88865000  1.0
  H  H27  1  0.91542000  0.85917000  0.61136000  1.0
  H  H28  1  0.85917000  0.91542000  0.11135000  1.0
  H  H29  1  0.08458000  0.14083000  0.38864000  1.0
  C  C30  1  0.19670000  0.24622000  0.95801000  1.0
  C  C31  1  0.75378000  0.80331000  0.54200000  1.0
  C  C32  1  0.80331000  0.75378000  0.04200000  1.0
  C  C33  1  0.24622000  0.19670000  0.45800000  1.0
  C  C34  1  0.80656000  0.35254000  0.33476000  1.0
  C  C35  1  0.64746000  0.19344000  0.16523000  1.0
  C  C36  1  0.19343000  0.64746000  0.66523000  1.0
  C  C37  1  0.35254000  0.80656000  0.83476000  1.0
  C  C38  1  0.83589000  0.25724000  0.24645000  1.0
  C  C39  1  0.74276000  0.16411000  0.25355000  1.0
  C  C40  1  0.16411000  0.74276000  0.75355000  1.0
  C  C41  1  0.25724000  0.83589000  0.74645000  1.0
  C  C42  1  0.67781000  0.37138000  0.43371000  1.0
  C  C43  1  0.62863000  0.32219000  0.06629000  1.0
  C  C44  1  0.32219000  0.62862000  0.56629000  1.0
  C  C45  1  0.37137000  0.67781000  0.93371000  1.0
  C  C46  1  0.04259000  0.34400000  0.14475000  1.0
  C  C47  1  0.65600000  0.95742000  0.35526000  1.0
  C  C48  1  0.95741000  0.65600000  0.85526000  1.0
  C  C49  1  0.34399000  0.04259000  0.64474000  1.0
  C  C50  1  0.95746000  0.25071000  0.14970000  1.0
  C  C51  1  0.74929000  0.04254000  0.35031000  1.0
  C  C52  1  0.04254000  0.74929000  0.85030000  1.0
  C  C53  1  0.25071000  0.95746000  0.64970000  1.0
  C  C54  1  0.00584000  0.44044000  0.23609000  1.0
  C  C55  1  0.55955000  0.99417000  0.26391000  1.0
  C  C56  1  0.99417000  0.55955000  0.76391000  1.0
  C  C57  1  0.44044000  0.00584000  0.73609000  1.0
  C  C58  1  0.89198000  0.44269000  0.33074000  1.0
  C  C59  1  0.55731000  0.10801000  0.16926000  1.0
  C  C60  1  0.10801000  0.55731000  0.66926000  1.0
  C  C61  1  0.44269000  0.89198000  0.83074000  1.0
  C  C62  1  0.16176000  0.33879000  0.04774000  1.0
  C  C63  1  0.66121000  0.83825000  0.45226000  1.0
  C  C64  1  0.83824000  0.66121000  0.95226000  1.0
  C  C65  1  0.33879000  0.16176000  0.54774000  1.0
  C  C66  1  0.99684000  0.15670000  0.05542000  1.0
  C  C67  1  0.84329000  0.00316000  0.44459000  1.0
  C  C68  1  0.00316000  0.84330000  0.94458000  1.0
  C  C69  1  0.15671000  0.99684000  0.55541000  1.0
  C  C70  1  0.11291000  0.15515000  0.96192000  1.0
  C  C71  1  0.84485000  0.88710000  0.53809000  1.0
  C  C72  1  0.88710000  0.84485000  0.03808000  1.0
  C  C73  1  0.15515000  0.11291000  0.46191000  1.0
  O  O74  1  0.31703000  0.46139000  0.24864000  1.0
  O  O75  1  0.53860000  0.68298000  0.25136000  1.0
  O  O76  1  0.68297000  0.53861000  0.75136000  1.0
  O  O77  1  0.46140000  0.31702000  0.74864000  1.0
  O  O78  1  0.55346000  0.39834000  0.39960000  1.0
  O  O79  1  0.60166000  0.44655000  0.10040000  1.0
  O  O80  1  0.44654000  0.60165000  0.60040000  1.0
  O  O81  1  0.39834000  0.55345000  0.89960000  1.0
  O  O82  1  0.19763000  0.80237000  0.25000000  1.0
  O  O83  1  0.80237000  0.19764000  0.75000000  1.0
  O  O84  1  0.69890000  0.36316000  0.54736000  1.0
  O  O85  1  0.63684000  0.30110000  0.95264000  1.0
  O  O86  1  0.30110000  0.63684000  0.45263000  1.0
  O  O87  1  0.36315000  0.69889000  0.04736000  1.0
