# generated using pymatgen
data_CdH15C19NO6
_symmetry_space_group_name_H-M   'P 1'
_cell_length_a   8.01618000
_cell_length_b   10.91280000
_cell_length_c   10.91280000
_cell_angle_alpha   70.26470000
_cell_angle_beta   77.45020000
_cell_angle_gamma   77.45010000
_symmetry_Int_Tables_number   1
_chemical_formula_structural   CdH15C19NO6
_chemical_formula_sum   'Cd2 H30 C38 N2 O12'
_cell_volume   866.27130585
_cell_formula_units_Z   2
loop_
 _symmetry_equiv_pos_site_id
 _symmetry_equiv_pos_as_xyz
  1  'x, y, z'
loop_
 _atom_site_type_symbol
 _atom_site_label
 _atom_site_symmetry_multiplicity
 _atom_site_fract_x
 _atom_site_fract_y
 _atom_site_fract_z
 _atom_site_occupancy
  Cd  Cd0  1  0.25000000  0.12274000  0.87726000  1.0
  Cd  Cd1  1  0.75000000  0.87726000  0.12274000  1.0
  H  H2  1  0.57569000  0.15402000  0.93841000  1.0
  H  H3  1  0.92431000  0.06159000  0.84598000  1.0
  H  H4  1  0.42431000  0.84598000  0.06159000  1.0
  H  H5  1  0.07570000  0.93841000  0.15401000  1.0
  H  H6  1  0.62116000  0.06683000  0.84735000  1.0
  H  H7  1  0.87884000  0.15265000  0.93317000  1.0
  H  H8  1  0.37884000  0.93317000  0.15265000  1.0
  H  H9  1  0.12116000  0.84736000  0.06683000  1.0
  H  H10  1  0.26610000  0.64788000  0.98947000  1.0
  H  H11  1  0.23390000  0.01053000  0.35212000  1.0
  H  H12  1  0.73389000  0.35212000  0.01053000  1.0
  H  H13  1  0.76610000  0.98947000  0.64788000  1.0
  H  H14  1  0.33734000  0.42765000  0.95337000  1.0
  H  H15  1  0.16266000  0.04663000  0.57235000  1.0
  H  H16  1  0.66267000  0.57235000  0.04664000  1.0
  H  H17  1  0.83733000  0.95337000  0.42765000  1.0
  H  H18  1  0.51481000  0.40080000  0.74673000  1.0
  H  H19  1  0.98519000  0.25327000  0.59920000  1.0
  H  H20  1  0.48519000  0.59920000  0.25327000  1.0
  H  H21  1  0.01481000  0.74673000  0.40080000  1.0
  H  H22  1  0.53262000  0.82005000  0.60272000  1.0
  H  H23  1  0.96738000  0.39728000  0.17995000  1.0
  H  H24  1  0.46738000  0.17995000  0.39728000  1.0
  H  H25  1  0.03262000  0.60272000  0.82005000  1.0
  H  H26  1  0.75000000  0.38774000  0.61226000  1.0
  H  H27  1  0.25000000  0.61226000  0.38774000  1.0
  H  H28  1  0.56549000  0.79528000  0.41531000  1.0
  H  H29  1  0.93451000  0.58469000  0.20472000  1.0
  H  H30  1  0.43451000  0.20472000  0.58469000  1.0
  H  H31  1  0.06549000  0.41531000  0.79528000  1.0
  C  C32  1  0.35223000  0.87992000  0.81613000  1.0
  C  C33  1  0.14777000  0.18387000  0.12008000  1.0
  C  C34  1  0.64777000  0.12008000  0.18387000  1.0
  C  C35  1  0.85223000  0.81613000  0.87992000  1.0
  C  C36  1  0.39523000  0.74685000  0.79690000  1.0
  C  C37  1  0.10477000  0.20310000  0.25315000  1.0
  C  C38  1  0.60477000  0.25315000  0.20310000  1.0
  C  C39  1  0.89523000  0.79690000  0.74685000  1.0
  C  C40  1  0.34177000  0.63635000  0.89718000  1.0
  C  C41  1  0.15823000  0.10282000  0.36365000  1.0
  C  C42  1  0.65823000  0.36365000  0.10282000  1.0
  C  C43  1  0.84177000  0.89718000  0.63635000  1.0
  C  C44  1  0.38401000  0.51286000  0.87744000  1.0
  C  C45  1  0.11599000  0.12256000  0.48714000  1.0
  C  C46  1  0.61599000  0.48714000  0.12256000  1.0
  C  C47  1  0.88401000  0.87744000  0.51286000  1.0
  C  C48  1  0.48327000  0.49837000  0.75993000  1.0
  C  C49  1  0.01673000  0.24007000  0.50163000  1.0
  C  C50  1  0.51673000  0.50163000  0.24007000  1.0
  C  C51  1  0.98327000  0.75993000  0.49837000  1.0
  C  C52  1  0.53863000  0.60802000  0.65834000  1.0
  C  C53  1  0.96137000  0.34166000  0.39198000  1.0
  C  C54  1  0.46137000  0.39198000  0.34166000  1.0
  C  C55  1  0.03863000  0.65834000  0.60802000  1.0
  C  C56  1  0.49130000  0.73245000  0.67783000  1.0
  C  C57  1  0.00869000  0.32217000  0.26755000  1.0
  C  C58  1  0.50870000  0.26755000  0.32217000  1.0
  C  C59  1  0.99130000  0.67783000  0.73245000  1.0
  C  C60  1  0.64563000  0.59343000  0.53404000  1.0
  C  C61  1  0.85437000  0.46596000  0.40657000  1.0
  C  C62  1  0.35437000  0.40657000  0.46596000  1.0
  C  C63  1  0.14563000  0.53404000  0.59343000  1.0
  C  C64  1  0.75000000  0.47463000  0.52537000  1.0
  C  C65  1  0.25000000  0.52537000  0.47463000  1.0
  C  C66  1  0.64703000  0.70071000  0.41838000  1.0
  C  C67  1  0.85297000  0.58162000  0.29929000  1.0
  C  C68  1  0.35297000  0.29929000  0.58162000  1.0
  C  C69  1  0.14703000  0.41839000  0.70071000  1.0
  N  N70  1  0.75000000  0.69443000  0.30557000  1.0
  N  N71  1  0.25000000  0.30557000  0.69443000  1.0
  O  O72  1  0.29385000  0.88615000  0.93521000  1.0
  O  O73  1  0.20615000  0.06479000  0.11385000  1.0
  O  O74  1  0.70615000  0.11385000  0.06479000  1.0
  O  O75  1  0.79385000  0.93521000  0.88615000  1.0
  O  O76  1  0.37249000  0.98265000  0.72038000  1.0
  O  O77  1  0.12751000  0.27962000  0.01735000  1.0
  O  O78  1  0.62751000  0.01735000  0.27962000  1.0
  O  O79  1  0.87249000  0.72038000  0.98265000  1.0
  O  O80  1  0.54033000  0.14579000  0.86029000  1.0
  O  O81  1  0.95967000  0.13971000  0.85420000  1.0
  O  O82  1  0.45967000  0.85420000  0.13971000  1.0
  O  O83  1  0.04033000  0.86029000  0.14579000  1.0
