# generated using pymatgen
data_DyH27C24S6(NO3)3
_symmetry_space_group_name_H-M   'P 1'
_cell_length_a   7.73331000
_cell_length_b   11.64500000
_cell_length_c   17.45600000
_cell_angle_alpha   93.89470000
_cell_angle_beta   94.77280000
_cell_angle_gamma   91.85260000
_symmetry_Int_Tables_number   1
_chemical_formula_structural   DyH27C24S6(NO3)3
_chemical_formula_sum   'Dy2 H54 C48 S12 N6 O18'
_cell_volume   1561.78001396
_cell_formula_units_Z   2
loop_
 _symmetry_equiv_pos_site_id
 _symmetry_equiv_pos_as_xyz
  1  'x, y, z'
loop_
 _atom_site_type_symbol
 _atom_site_label
 _atom_site_symmetry_multiplicity
 _atom_site_fract_x
 _atom_site_fract_y
 _atom_site_fract_z
 _atom_site_occupancy
  Dy  Dy0  1  0.78048000  0.58877000  0.75357000  1.0
  Dy  Dy1  1  0.21953000  0.41122000  0.24643000  1.0
  H  H2  1  0.43867000  0.69332000  0.96227000  1.0
  H  H3  1  0.56134000  0.30668000  0.03773000  1.0
  H  H4  1  0.33678000  0.82005000  0.07258000  1.0
  H  H5  1  0.66322000  0.17995000  0.92742000  1.0
  H  H6  1  0.53754000  0.98056000  0.13068000  1.0
  H  H7  1  0.46245000  0.01944000  0.86932000  1.0
  H  H8  1  0.18085000  0.42617000  0.71985000  1.0
  H  H9  1  0.81915000  0.57383000  0.28015000  1.0
  H  H10  1  0.95885000  0.26192000  0.71101000  1.0
  H  H11  1  0.04114000  0.73809000  0.28899000  1.0
  H  H12  1  0.06596000  0.06158000  0.72104000  1.0
  H  H13  1  0.93403000  0.93842000  0.27896000  1.0
  H  H14  1  0.72012000  0.12171000  0.49049000  1.0
  H  H15  1  0.27989000  0.87828000  0.50951000  1.0
  H  H16  1  0.72888000  0.92612000  0.42185000  1.0
  H  H17  1  0.27113000  0.07387000  0.57816000  1.0
  H  H18  1  0.70010000  0.75270000  0.50148000  1.0
  H  H19  1  0.29991000  0.24730000  0.49853000  1.0
  H  H20  1  0.19937000  0.75145000  0.86359000  1.0
  H  H21  1  0.80064000  0.24856000  0.13641000  1.0
  H  H22  1  0.34897000  0.85151000  0.82781000  1.0
  H  H23  1  0.65104000  0.14849000  0.17219000  1.0
  H  H24  1  0.34377000  0.70179000  0.79206000  1.0
  H  H25  1  0.65623000  0.29821000  0.20794000  1.0
  H  H26  1  0.14912000  0.85739000  0.61727000  1.0
  H  H27  1  0.85088000  0.14261000  0.38273000  1.0
  H  H28  1  0.31638000  0.76486000  0.65365000  1.0
  H  H29  1  0.68362000  0.23514000  0.34636000  1.0
  H  H30  1  0.31780000  0.91624000  0.68786000  1.0
  H  H31  1  0.68220000  0.08376000  0.31214000  1.0
  H  H32  1  0.83047000  0.32931000  0.89152000  1.0
  H  H33  1  0.16952000  0.67069000  0.10848000  1.0
  H  H34  1  0.98795000  0.31076000  0.97226000  1.0
  H  H35  1  0.01205000  0.68923000  0.02774000  1.0
  H  H36  1  0.04180000  0.27855000  0.87448000  1.0
  H  H37  1  0.95819000  0.72144000  0.12552000  1.0
  H  H38  1  0.33495000  0.54259000  0.90924000  1.0
  H  H39  1  0.66505000  0.45741000  0.09076000  1.0
  H  H40  1  0.30912000  0.38920000  0.89353000  1.0
  H  H41  1  0.69088000  0.61080000  0.10647000  1.0
  H  H42  1  0.29694000  0.45680000  0.98907000  1.0
  H  H43  1  0.70306000  0.54319000  0.01092000  1.0
  H  H44  1  0.09306000  0.35299000  0.55383000  1.0
  H  H45  1  0.90694000  0.64701000  0.44617000  1.0
  H  H46  1  0.93441000  0.31621000  0.47495000  1.0
  H  H47  1  0.06559000  0.68378000  0.52505000  1.0
  H  H48  1  0.91996000  0.25027000  0.56615000  1.0
  H  H49  1  0.08003000  0.74973000  0.43385000  1.0
  H  H50  1  0.53151000  0.43987000  0.57766000  1.0
  H  H51  1  0.46850000  0.56014000  0.42234000  1.0
  H  H52  1  0.61716000  0.29719000  0.57808000  1.0
  H  H53  1  0.38285000  0.70282000  0.42192000  1.0
  H  H54  1  0.58624000  0.36870000  0.48861000  1.0
  H  H55  1  0.41377000  0.63130000  0.51138000  1.0
  C  C56  1  0.77653000  0.88820000  0.99406000  1.0
  C  C57  1  0.22347000  0.11180000  0.00594000  1.0
  C  C58  1  0.67612000  0.79085000  0.95973000  1.0
  C  C59  1  0.32388000  0.20915000  0.04027000  1.0
  C  C60  1  0.51669000  0.76712000  0.98879000  1.0
  C  C61  1  0.48331000  0.23288000  0.01121000  1.0
  C  C62  1  0.46106000  0.83560000  0.04952000  1.0
  C  C63  1  0.53894000  0.16440000  0.95048000  1.0
  C  C64  1  0.57223000  0.92635000  0.08112000  1.0
  C  C65  1  0.42776000  0.07365000  0.91888000  1.0
  C  C66  1  0.73329000  0.71501000  0.89539000  1.0
  C  C67  1  0.26671000  0.28499000  0.10461000  1.0
  C  C68  1  0.44392000  0.20009000  0.74119000  1.0
  C  C69  1  0.55607000  0.79991000  0.25881000  1.0
  C  C70  1  0.39570000  0.31611000  0.73743000  1.0
  C  C71  1  0.60429000  0.68389000  0.26257000  1.0
  C  C72  1  0.21981000  0.33761000  0.72388000  1.0
  C  C73  1  0.78019000  0.66239000  0.27612000  1.0
  C  C74  1  0.09709000  0.24653000  0.71851000  1.0
  C  C75  1  0.90290000  0.75347000  0.28149000  1.0
  C  C76  1  0.15746000  0.13574000  0.72372000  1.0
  C  C77  1  0.84253000  0.86427000  0.27628000  1.0
  C  C78  1  0.52514000  0.41419000  0.74799000  1.0
  C  C79  1  0.47485000  0.58580000  0.25201000  1.0
  C  C80  1  0.68151000  0.85607000  0.60594000  1.0
  C  C81  1  0.31849000  0.14393000  0.39406000  1.0
  C  C82  1  0.68266000  0.97049000  0.63973000  1.0
  C  C83  1  0.31734000  0.02951000  0.36026000  1.0
  C  C84  1  0.71255000  0.04422000  0.52218000  1.0
  C  C85  1  0.28746000  0.95577000  0.47782000  1.0
  C  C86  1  0.71699000  0.93563000  0.48362000  1.0
  C  C87  1  0.28304000  0.06436000  0.51638000  1.0
  C  C88  1  0.70006000  0.84073000  0.52701000  1.0
  C  C89  1  0.29996000  0.15927000  0.47299000  1.0
  C  C90  1  0.66954000  0.75323000  0.65170000  1.0
  C  C91  1  0.33045000  0.24677000  0.34830000  1.0
  C  C92  1  0.26744000  0.77296000  0.81363000  1.0
  C  C93  1  0.73257000  0.22704000  0.18637000  1.0
  C  C94  1  0.23729000  0.83888000  0.66705000  1.0
  C  C95  1  0.76271000  0.16112000  0.33295000  1.0
  C  C96  1  0.96836000  0.33388000  0.91232000  1.0
  C  C97  1  0.03163000  0.66612000  0.08768000  1.0
  C  C98  1  0.26893000  0.46528000  0.92701000  1.0
  C  C99  1  0.73108000  0.53471000  0.07299000  1.0
  C  C100  1  0.95640000  0.32776000  0.53801000  1.0
  C  C101  1  0.04359000  0.67224000  0.46198000  1.0
  C  C102  1  0.61938000  0.37983000  0.55120000  1.0
  C  C103  1  0.38063000  0.62018000  0.44880000  1.0
  S  S104  1  0.97382000  0.92863000  0.95848000  1.0
  S  S105  1  0.02618000  0.07138000  0.04152000  1.0
  S  S106  1  0.66882000  0.17020000  0.75680000  1.0
  S  S107  1  0.33118000  0.82980000  0.24319000  1.0
  S  S108  1  0.66852000  0.99354000  0.74136000  1.0
  S  S109  1  0.33148000  0.00646000  0.25863000  1.0
  S  S110  1  0.10121000  0.80366000  0.74096000  1.0
  S  S111  1  0.89879000  0.19635000  0.25905000  1.0
  S  S112  1  0.03904000  0.48187000  0.90801000  1.0
  S  S113  1  0.96096000  0.51813000  0.09199000  1.0
  S  S114  1  0.83283000  0.44703000  0.57053000  1.0
  S  S115  1  0.16717000  0.55297000  0.42947000  1.0
  N  N116  1  0.72478000  0.95240000  0.05455000  1.0
  N  N117  1  0.27522000  0.04760000  0.94545000  1.0
  N  N118  1  0.32671000  0.11230000  0.73283000  1.0
  N  N119  1  0.67327000  0.88771000  0.26717000  1.0
  N  N120  1  0.69657000  0.06204000  0.59782000  1.0
  N  N121  1  0.30343000  0.93796000  0.40218000  1.0
  O  O122  1  0.87511000  0.73925000  0.86656000  1.0
  O  O123  1  0.12489000  0.26075000  0.13344000  1.0
  O  O124  1  0.63839000  0.62589000  0.86945000  1.0
  O  O125  1  0.36161000  0.37412000  0.13054000  1.0
  O  O126  1  0.49034000  0.50972000  0.71949000  1.0
  O  O127  1  0.50965000  0.49027000  0.28052000  1.0
  O  O128  1  0.67155000  0.39927000  0.78499000  1.0
  O  O129  1  0.32844000  0.60072000  0.21502000  1.0
  O  O130  1  0.67473000  0.65274000  0.61924000  1.0
  O  O131  1  0.32527000  0.34726000  0.38077000  1.0
  O  O132  1  0.66244000  0.77041000  0.72479000  1.0
  O  O133  1  0.33755000  0.22959000  0.27522000  1.0
  O  O134  1  0.01726000  0.68684000  0.71017000  1.0
  O  O135  1  0.98274000  0.31316000  0.28983000  1.0
  O  O136  1  0.01399000  0.50853000  0.82375000  1.0
  O  O137  1  0.98601000  0.49147000  0.17625000  1.0
  O  O138  1  0.86805000  0.45391000  0.65796000  1.0
  O  O139  1  0.13195000  0.54609000  0.34204000  1.0
