# generated using pymatgen
data_CuH3C5I4N
_symmetry_space_group_name_H-M   'P 1'
_cell_length_a   4.14513000
_cell_length_b   11.12150000
_cell_length_c   12.05230000
_cell_angle_alpha   80.19280000
_cell_angle_beta   89.01020000
_cell_angle_gamma   82.83720000
_symmetry_Int_Tables_number   1
_chemical_formula_structural   CuH3C5I4N
_chemical_formula_sum   'Cu2 H6 C10 I8 N2'
_cell_volume   543.21519172
_cell_formula_units_Z   2
loop_
 _symmetry_equiv_pos_site_id
 _symmetry_equiv_pos_as_xyz
  1  'x, y, z'
loop_
 _atom_site_type_symbol
 _atom_site_label
 _atom_site_symmetry_multiplicity
 _atom_site_fract_x
 _atom_site_fract_y
 _atom_site_fract_z
 _atom_site_occupancy
  Cu  Cu0  1  0.26907000  0.41698000  0.51675000  1.0
  Cu  Cu1  1  0.73094000  0.58302000  0.48326000  1.0
  H  H2  1  0.43757000  0.98414000  0.88098000  1.0
  H  H3  1  0.56241000  0.01585000  0.11902000  1.0
  H  H4  1  0.60229000  0.16022000  0.53923000  1.0
  H  H5  1  0.39771000  0.83978000  0.46078000  1.0
  H  H6  1  0.04398000  0.36042000  0.75172000  1.0
  H  H7  1  0.95600000  0.63958000  0.24828000  1.0
  C  C8  1  0.40353000  0.06324000  0.81330000  1.0
  C  C9  1  0.59646000  0.93677000  0.18669000  1.0
  C  C10  1  0.53790000  0.05775000  0.70695000  1.0
  C  C11  1  0.46210000  0.94225000  0.29306000  1.0
  C  C12  1  0.49578000  0.16097000  0.62247000  1.0
  C  C13  1  0.50422000  0.83903000  0.37753000  1.0
  C  C14  1  0.22555000  0.17386000  0.82990000  1.0
  C  C15  1  0.77444000  0.82613000  0.17011000  1.0
  C  C16  1  0.18459000  0.27340000  0.74135000  1.0
  C  C17  1  0.81540000  0.72661000  0.25864000  1.0
  I  I18  1  0.21648000  0.60980000  0.61487000  1.0
  I  I19  1  0.78353000  0.39020000  0.38514000  1.0
  I  I20  1  0.03109000  0.19701000  0.98786000  1.0
  I  I21  1  0.96890000  0.80299000  0.01214000  1.0
  I  I22  1  0.79873000  0.89302000  0.67175000  1.0
  I  I23  1  0.20129000  0.10698000  0.32825000  1.0
  I  I24  1  0.42875000  0.52923000  0.88545000  1.0
  I  I25  1  0.57128000  0.47077000  0.11455000  1.0
  N  N26  1  0.32057000  0.26683000  0.63977000  1.0
  N  N27  1  0.67942000  0.73317000  0.36023000  1.0
