# generated using pymatgen
data_ZnH18C26N4O7
_symmetry_space_group_name_H-M   'P 1'
_cell_length_a   13.35960000
_cell_length_b   13.35960000
_cell_length_c   16.30750000
_cell_angle_alpha   67.67530000
_cell_angle_beta   67.67560000
_cell_angle_gamma   74.15040000
_symmetry_Int_Tables_number   1
_chemical_formula_structural   ZnH18C26N4O7
_chemical_formula_sum   'Zn4 H72 C104 N16 O28'
_cell_volume   2462.20254176
_cell_formula_units_Z   4
loop_
 _symmetry_equiv_pos_site_id
 _symmetry_equiv_pos_as_xyz
  1  'x, y, z'
loop_
 _atom_site_type_symbol
 _atom_site_label
 _atom_site_symmetry_multiplicity
 _atom_site_fract_x
 _atom_site_fract_y
 _atom_site_fract_z
 _atom_site_occupancy
  Zn  Zn0  1  0.80080000  0.61234000  0.94991000  1.0
  Zn  Zn1  1  0.38767000  0.19920000  0.55009000  1.0
  Zn  Zn2  1  0.19920000  0.38767000  0.05009000  1.0
  Zn  Zn3  1  0.61234000  0.80080000  0.44991000  1.0
  H  H4  1  0.49963000  0.50410000  0.87411000  1.0
  H  H5  1  0.49589000  0.50036000  0.62589000  1.0
  H  H6  1  0.50037000  0.49590000  0.12589000  1.0
  H  H7  1  0.50410000  0.49963000  0.37411000  1.0
  H  H8  1  0.73453000  0.02238000  0.86575000  1.0
  H  H9  1  0.97762000  0.26547000  0.63425000  1.0
  H  H10  1  0.26547000  0.97761000  0.13425000  1.0
  H  H11  1  0.02238000  0.73453000  0.36575000  1.0
  H  H12  1  0.90189000  0.36999000  0.91594000  1.0
  H  H13  1  0.63001000  0.09811000  0.58406000  1.0
  H  H14  1  0.09811000  0.63002000  0.08406000  1.0
  H  H15  1  0.36999000  0.90189000  0.41594000  1.0
  H  H16  1  0.15598000  0.52492000  0.82154000  1.0
  H  H17  1  0.47508000  0.84402000  0.67845000  1.0
  H  H18  1  0.84402000  0.47508000  0.17846000  1.0
  H  H19  1  0.52492000  0.15598000  0.32154000  1.0
  H  H20  1  0.34886000  0.53526000  0.72254000  1.0
  H  H21  1  0.46474000  0.65114000  0.77746000  1.0
  H  H22  1  0.65114000  0.46474000  0.27746000  1.0
  H  H23  1  0.53526000  0.34886000  0.22254000  1.0
  H  H24  1  0.24927000  0.85711000  0.55216000  1.0
  H  H25  1  0.14289000  0.75073000  0.94783000  1.0
  H  H26  1  0.75073000  0.14289000  0.44784000  1.0
  H  H27  1  0.85710000  0.24927000  0.05216000  1.0
  H  H28  1  0.05710000  0.84875000  0.65716000  1.0
  H  H29  1  0.15125000  0.94290000  0.84284000  1.0
  H  H30  1  0.94290000  0.15125000  0.34284000  1.0
  H  H31  1  0.84875000  0.05710000  0.15716000  1.0
  H  H32  1  0.77834000  0.84125000  0.90255000  1.0
  H  H33  1  0.15875000  0.22166000  0.59745000  1.0
  H  H34  1  0.22166000  0.15875000  0.09745000  1.0
  H  H35  1  0.84125000  0.77834000  0.40255000  1.0
  H  H36  1  0.56913000  0.64445000  0.92835000  1.0
  H  H37  1  0.35555000  0.43087000  0.57165000  1.0
  H  H38  1  0.43088000  0.35555000  0.07165000  1.0
  H  H39  1  0.64445000  0.56913000  0.42834000  1.0
  H  H40  1  0.42246000  0.80592000  0.90455000  1.0
  H  H41  1  0.19408000  0.57754000  0.59545000  1.0
  H  H42  1  0.57755000  0.19408000  0.09545000  1.0
  H  H43  1  0.80592000  0.42246000  0.40455000  1.0
  H  H44  1  0.45752000  0.99305000  0.87710000  1.0
  H  H45  1  0.00695000  0.54248000  0.62289000  1.0
  H  H46  1  0.54249000  0.00695000  0.12289000  1.0
  H  H47  1  0.99305000  0.45752000  0.37711000  1.0
  H  H48  1  0.50476000  0.33347000  0.86707000  1.0
  H  H49  1  0.66653000  0.49524000  0.63294000  1.0
  H  H50  1  0.49524000  0.66653000  0.13293000  1.0
  H  H51  1  0.33347000  0.50476000  0.36707000  1.0
  H  H52  1  0.78408000  0.45171000  0.84733000  1.0
  H  H53  1  0.54829000  0.21592000  0.65267000  1.0
  H  H54  1  0.21592000  0.54829000  0.15267000  1.0
  H  H55  1  0.45171000  0.78408000  0.34733000  1.0
  H  H56  1  0.81330000  0.11716000  0.86497000  1.0
  H  H57  1  0.88284000  0.18670000  0.63503000  1.0
  H  H58  1  0.18670000  0.88284000  0.13503000  1.0
  H  H59  1  0.11716000  0.81330000  0.36497000  1.0
  H  H60  1  0.15139000  0.22927000  0.77544000  1.0
  H  H61  1  0.77074000  0.84861000  0.72456000  1.0
  H  H62  1  0.84861000  0.77073000  0.22457000  1.0
  H  H63  1  0.22927000  0.15140000  0.27543000  1.0
  H  H64  1  0.33681000  0.22742000  0.78236000  1.0
  H  H65  1  0.77259000  0.66319000  0.71764000  1.0
  H  H66  1  0.66319000  0.77258000  0.21765000  1.0
  H  H67  1  0.22742000  0.33681000  0.28235000  1.0
  H  H68  1  0.34938000  0.29955000  0.89706000  1.0
  H  H69  1  0.70046000  0.65062000  0.60294000  1.0
  H  H70  1  0.65062000  0.70045000  0.10294000  1.0
  H  H71  1  0.29954000  0.34939000  0.39706000  1.0
  H  H72  1  0.01118000  0.38434000  0.99182000  1.0
  H  H73  1  0.61565000  0.98882000  0.50818000  1.0
  H  H74  1  0.98882000  0.61566000  0.00817000  1.0
  H  H75  1  0.38434000  0.01118000  0.49183000  1.0
  C  C76  1  0.98035000  0.68498000  0.81002000  1.0
  C  C77  1  0.31502000  0.01965000  0.68997000  1.0
  C  C78  1  0.01965000  0.31502000  0.18998000  1.0
  C  C79  1  0.68498000  0.98035000  0.31003000  1.0
  C  C80  1  0.09488000  0.68523000  0.74446000  1.0
  C  C81  1  0.31477000  0.90512000  0.75554000  1.0
  C  C82  1  0.90512000  0.31477000  0.25554000  1.0
  C  C83  1  0.68523000  0.09488000  0.24446000  1.0
  C  C84  1  0.17724000  0.59694000  0.76194000  1.0
  C  C85  1  0.40305000  0.82276000  0.73806000  1.0
  C  C86  1  0.82276000  0.40305000  0.23806000  1.0
  C  C87  1  0.59694000  0.17725000  0.26194000  1.0
  C  C88  1  0.28527000  0.60280000  0.70552000  1.0
  C  C89  1  0.39720000  0.71473000  0.79448000  1.0
  C  C90  1  0.71473000  0.39720000  0.29448000  1.0
  C  C91  1  0.60280000  0.28527000  0.20552000  1.0
  C  C92  1  0.31217000  0.69600000  0.62851000  1.0
  C  C93  1  0.30400000  0.68783000  0.87150000  1.0
  C  C94  1  0.68783000  0.30400000  0.37150000  1.0
  C  C95  1  0.69600000  0.31217000  0.12850000  1.0
  C  C96  1  0.22882000  0.78372000  0.61046000  1.0
  C  C97  1  0.21628000  0.77118000  0.88954000  1.0
  C  C98  1  0.77118000  0.21628000  0.38954000  1.0
  C  C99  1  0.78372000  0.22882000  0.11046000  1.0
  C  C100  1  0.12139000  0.77924000  0.66842000  1.0
  C  C101  1  0.22076000  0.87861000  0.83158000  1.0
  C  C102  1  0.87861000  0.22076000  0.33158000  1.0
  C  C103  1  0.77923000  0.12139000  0.16842000  1.0
  C  C104  1  0.42875000  0.70391000  0.57031000  1.0
  C  C105  1  0.29608000  0.57125000  0.92970000  1.0
  C  C106  1  0.57125000  0.29608000  0.42970000  1.0
  C  C107  1  0.70391000  0.42875000  0.07031000  1.0
  C  C108  1  0.69730000  0.83683000  0.90425000  1.0
  C  C109  1  0.16317000  0.30270000  0.59575000  1.0
  C  C110  1  0.30271000  0.16317000  0.09575000  1.0
  C  C111  1  0.83683000  0.69730000  0.40425000  1.0
  C  C112  1  0.58095000  0.72655000  0.91757000  1.0
  C  C113  1  0.27345000  0.41905000  0.58243000  1.0
  C  C114  1  0.41905000  0.27345000  0.08243000  1.0
  C  C115  1  0.72655000  0.58095000  0.41757000  1.0
  C  C116  1  0.50050000  0.81715000  0.90364000  1.0
  C  C117  1  0.18285000  0.49950000  0.59636000  1.0
  C  C118  1  0.49950000  0.18285000  0.09635000  1.0
  C  C119  1  0.81715000  0.50050000  0.40364000  1.0
  C  C120  1  0.51905000  0.92132000  0.88859000  1.0
  C  C121  1  0.07868000  0.48095000  0.61141000  1.0
  C  C122  1  0.48095000  0.07868000  0.11141000  1.0
  C  C123  1  0.92132000  0.51905000  0.38859000  1.0
  C  C124  1  0.62054000  0.93152000  0.88921000  1.0
  C  C125  1  0.06848000  0.37946000  0.61079000  1.0
  C  C126  1  0.37946000  0.06848000  0.11079000  1.0
  C  C127  1  0.93152000  0.62054000  0.38921000  1.0
  C  C128  1  0.59132000  0.12933000  0.87514000  1.0
  C  C129  1  0.87067000  0.40868000  0.62486000  1.0
  C  C130  1  0.40869000  0.87067000  0.12486000  1.0
  C  C131  1  0.12933000  0.59132000  0.37515000  1.0
  C  C132  1  0.65036000  0.21461000  0.86783000  1.0
  C  C133  1  0.78539000  0.34964000  0.63217000  1.0
  C  C134  1  0.34964000  0.78539000  0.13217000  1.0
  C  C135  1  0.21461000  0.65036000  0.36784000  1.0
  C  C136  1  0.58961000  0.31870000  0.86526000  1.0
  C  C137  1  0.68130000  0.41039000  0.63475000  1.0
  C  C138  1  0.41039000  0.68130000  0.13475000  1.0
  C  C139  1  0.31870000  0.58961000  0.36526000  1.0
  C  C140  1  0.63695000  0.40340000  0.85997000  1.0
  C  C141  1  0.59659000  0.36305000  0.64003000  1.0
  C  C142  1  0.36305000  0.59659000  0.14003000  1.0
  C  C143  1  0.40341000  0.63695000  0.35997000  1.0
  C  C144  1  0.74729000  0.38405000  0.85495000  1.0
  C  C145  1  0.61594000  0.25270000  0.64505000  1.0
  C  C146  1  0.25271000  0.61595000  0.14505000  1.0
  C  C147  1  0.38405000  0.74729000  0.35495000  1.0
  C  C148  1  0.80796000  0.28022000  0.85786000  1.0
  C  C149  1  0.71978000  0.19204000  0.64214000  1.0
  C  C150  1  0.19204000  0.71978000  0.14214000  1.0
  C  C151  1  0.28022000  0.80796000  0.35787000  1.0
  C  C152  1  0.76004000  0.19536000  0.86426000  1.0
  C  C153  1  0.80463000  0.23996000  0.63574000  1.0
  C  C154  1  0.23996000  0.80464000  0.13574000  1.0
  C  C155  1  0.19536000  0.76004000  0.36427000  1.0
  C  C156  1  0.92612000  0.25438000  0.85155000  1.0
  C  C157  1  0.74562000  0.07388000  0.64845000  1.0
  C  C158  1  0.07389000  0.74562000  0.14845000  1.0
  C  C159  1  0.25438000  0.92612000  0.35155000  1.0
  C  C160  1  0.06689000  0.30993000  0.88145000  1.0
  C  C161  1  0.69007000  0.93311000  0.61855000  1.0
  C  C162  1  0.93311000  0.69007000  0.11855000  1.0
  C  C163  1  0.30993000  0.06689000  0.38145000  1.0
  C  C164  1  0.16006000  0.26360000  0.82255000  1.0
  C  C165  1  0.73641000  0.83994000  0.67745000  1.0
  C  C166  1  0.83994000  0.73640000  0.17745000  1.0
  C  C167  1  0.26360000  0.16006000  0.32255000  1.0
  C  C168  1  0.26240000  0.26153000  0.82724000  1.0
  C  C169  1  0.73848000  0.73760000  0.67275000  1.0
  C  C170  1  0.73760000  0.73847000  0.17276000  1.0
  C  C171  1  0.26153000  0.26240000  0.32724000  1.0
  C  C172  1  0.27055000  0.30253000  0.89065000  1.0
  C  C173  1  0.69748000  0.72945000  0.60935000  1.0
  C  C174  1  0.72945000  0.69747000  0.10935000  1.0
  C  C175  1  0.30253000  0.27055000  0.39065000  1.0
  C  C176  1  0.08139000  0.34894000  0.94420000  1.0
  C  C177  1  0.65106000  0.91861000  0.55580000  1.0
  C  C178  1  0.91861000  0.65106000  0.05580000  1.0
  C  C179  1  0.34894000  0.08139000  0.44420000  1.0
  N  N180  1  0.67858000  0.73720000  0.91757000  1.0
  N  N181  1  0.26280000  0.32142000  0.58242000  1.0
  N  N182  1  0.32142000  0.26280000  0.08242000  1.0
  N  N183  1  0.73720000  0.67858000  0.41758000  1.0
  N  N184  1  0.65345000  0.02850000  0.87598000  1.0
  N  N185  1  0.97150000  0.34655000  0.62402000  1.0
  N  N186  1  0.34655000  0.97150000  0.12402000  1.0
  N  N187  1  0.02850000  0.65345000  0.37598000  1.0
  N  N188  1  0.96056000  0.31985000  0.88071000  1.0
  N  N189  1  0.68015000  0.03944000  0.61929000  1.0
  N  N190  1  0.03944000  0.68015000  0.11929000  1.0
  N  N191  1  0.31985000  0.96056000  0.38071000  1.0
  N  N192  1  0.18090000  0.34463000  0.94857000  1.0
  N  N193  1  0.65537000  0.81910000  0.55143000  1.0
  N  N194  1  0.81910000  0.65537000  0.05143000  1.0
  N  N195  1  0.34463000  0.18090000  0.44857000  1.0
  O  O196  1  0.94693000  0.59014000  0.85743000  1.0
  O  O197  1  0.40986000  0.05308000  0.64257000  1.0
  O  O198  1  0.05308000  0.40985000  0.14257000  1.0
  O  O199  1  0.59014000  0.94693000  0.35743000  1.0
  O  O200  1  0.92350000  0.77394000  0.81825000  1.0
  O  O201  1  0.22606000  0.07650000  0.68175000  1.0
  O  O202  1  0.07650000  0.22605000  0.18175000  1.0
  O  O203  1  0.77394000  0.92351000  0.31825000  1.0
  O  O204  1  0.50452000  0.62678000  0.58802000  1.0
  O  O205  1  0.37322000  0.49548000  0.91199000  1.0
  O  O206  1  0.49548000  0.37322000  0.41199000  1.0
  O  O207  1  0.62678000  0.50453000  0.08801000  1.0
  O  O208  1  0.45021000  0.79393000  0.50278000  1.0
  O  O209  1  0.20607000  0.54980000  0.99722000  1.0
  O  O210  1  0.54980000  0.20607000  0.49722000  1.0
  O  O211  1  0.79393000  0.45021000  0.00278000  1.0
  O  O212  1  0.49306000  0.14810000  0.88135000  1.0
  O  O213  1  0.85190000  0.50694000  0.61865000  1.0
  O  O214  1  0.50695000  0.85190000  0.11865000  1.0
  O  O215  1  0.14810000  0.49306000  0.38136000  1.0
  O  O216  1  0.58071000  0.50469000  0.85827000  1.0
  O  O217  1  0.49531000  0.41929000  0.64173000  1.0
  O  O218  1  0.41929000  0.49531000  0.14173000  1.0
  O  O219  1  0.50469000  0.58071000  0.35827000  1.0
  O  O220  1  0.98738000  0.17865000  0.82264000  1.0
  O  O221  1  0.82135000  0.01262000  0.67737000  1.0
  O  O222  1  0.01262000  0.82135000  0.17737000  1.0
  O  O223  1  0.17865000  0.98738000  0.32263000  1.0
