# generated using pymatgen
data_H9PbC12I2N3
_symmetry_space_group_name_H-M   'P 1'
_cell_length_a   8.09140000
_cell_length_b   9.66457000
_cell_length_c   10.94800000
_cell_angle_alpha   107.59700000
_cell_angle_beta   101.69500000
_cell_angle_gamma   112.10800000
_symmetry_Int_Tables_number   1
_chemical_formula_structural   H9PbC12I2N3
_chemical_formula_sum   'H18 Pb2 C24 I4 N6'
_cell_volume   705.85311220
_cell_formula_units_Z   2
loop_
 _symmetry_equiv_pos_site_id
 _symmetry_equiv_pos_as_xyz
  1  'x, y, z'
loop_
 _atom_site_type_symbol
 _atom_site_label
 _atom_site_symmetry_multiplicity
 _atom_site_fract_x
 _atom_site_fract_y
 _atom_site_fract_z
 _atom_site_occupancy
  H  H0  1  0.57300000  0.91841000  0.10797000  1.0
  H  H1  1  0.96504000  0.81106000  0.89190000  1.0
  H  H2  1  0.74504000  0.87610000  0.18393000  1.0
  H  H3  1  0.06078000  0.69222000  0.81600000  1.0
  H  H4  1  0.10038000  0.09142000  0.79050000  1.0
  H  H5  1  0.80977000  0.30029000  0.20934000  1.0
  H  H6  1  0.13576000  0.94584000  0.57475000  1.0
  H  H7  1  0.06082000  0.37110000  0.42515000  1.0
  H  H8  1  0.92847000  0.90410000  0.35121000  1.0
  H  H9  1  0.07687000  0.55282000  0.64868000  1.0
  H  H10  1  0.42164000  0.04972000  0.23193000  1.0
  H  H11  1  0.68917000  0.81744000  0.76824000  1.0
  H  H12  1  0.29382000  0.21117000  0.36974000  1.0
  H  H13  1  0.42373000  0.84114000  0.63028000  1.0
  H  H14  1  0.32250000  0.39067000  0.60344000  1.0
  H  H15  1  0.21934000  0.78739000  0.39663000  1.0
  H  H16  1  0.57317000  0.44428000  0.81090000  1.0
  H  H17  1  0.26276000  0.63337000  0.18944000  1.0
  Pb  Pb18  1  0.89170000  0.31842000  0.91641000  1.0
  Pb  Pb19  1  0.47555000  0.40228000  0.08351000  1.0
  C  C20  1  0.01502000  0.07620000  0.69167000  1.0
  C  C21  1  0.82325000  0.38415000  0.30815000  1.0
  C  C22  1  0.03277000  0.99287000  0.56992000  1.0
  C  C23  1  0.96260000  0.42280000  0.42992000  1.0
  C  C24  1  0.91710000  0.97124000  0.44654000  1.0
  C  C25  1  0.97026000  0.52450000  0.55332000  1.0
  C  C26  1  0.78487000  0.03360000  0.44442000  1.0
  C  C27  1  0.84013000  0.58890000  0.55547000  1.0
  C  C28  1  0.65491000  0.01078000  0.31813000  1.0
  C  C29  1  0.83631000  0.69230000  0.68182000  1.0
  C  C30  1  0.52346000  0.07024000  0.32622000  1.0
  C  C31  1  0.69669000  0.74359000  0.67383000  1.0
  C  C32  1  0.52379000  0.16388000  0.45360000  1.0
  C  C33  1  0.56978000  0.70991000  0.54651000  1.0
  C  C34  1  0.39854000  0.23428000  0.46389000  1.0
  C  C35  1  0.43449000  0.77013000  0.53624000  1.0
  C  C36  1  0.41419000  0.33296000  0.59110000  1.0
  C  C37  1  0.32315000  0.74179000  0.40907000  1.0
  C  C38  1  0.55378000  0.36220000  0.70938000  1.0
  C  C39  1  0.34454000  0.65264000  0.29086000  1.0
  C  C40  1  0.65583000  0.19518000  0.57926000  1.0
  C  C41  1  0.57635000  0.61549000  0.42086000  1.0
  C  C42  1  0.78098000  0.12163000  0.57337000  1.0
  C  C43  1  0.70735000  0.54786000  0.42656000  1.0
  I  I44  1  0.28608000  0.56361000  0.89924000  1.0
  I  I45  1  0.88715000  0.66441000  0.10100000  1.0
  I  I46  1  0.08462000  0.15048000  0.08932000  1.0
  I  I47  1  0.49502000  0.06115000  0.91039000  1.0
  N  N48  1  0.89449000  0.13921000  0.69301000  1.0
  N  N49  1  0.70126000  0.44571000  0.30685000  1.0
  N  N50  1  0.66894000  0.29391000  0.70308000  1.0
  N  N51  1  0.46583000  0.59048000  0.29714000  1.0
  N  N52  1  0.66498000  0.93527000  0.19599000  1.0
  N  N53  1  0.96847000  0.73913000  0.80393000  1.0
