# generated using pymatgen
data_Zn2H24C27N2O9
_symmetry_space_group_name_H-M   'P 1'
_cell_length_a   9.72546000
_cell_length_b   10.95950000
_cell_length_c   11.10070000
_cell_angle_alpha   91.00080000
_cell_angle_beta   90.28040000
_cell_angle_gamma   90.71390000
_symmetry_Int_Tables_number   1
_chemical_formula_structural   Zn2H24C27N2O9
_chemical_formula_sum   'Zn2 H24 C27 N2 O9'
_cell_volume   1182.89341388
_cell_formula_units_Z   1
loop_
 _symmetry_equiv_pos_site_id
 _symmetry_equiv_pos_as_xyz
  1  'x, y, z'
loop_
 _atom_site_type_symbol
 _atom_site_label
 _atom_site_symmetry_multiplicity
 _atom_site_fract_x
 _atom_site_fract_y
 _atom_site_fract_z
 _atom_site_occupancy
  Zn  Zn0  1  0.63732000  0.50312000  0.49519000  1.0
  Zn  Zn1  1  0.35500000  0.49782000  0.49421000  1.0
  H  H2  1  0.46999000  0.89605000  0.69231000  1.0
  H  H3  1  0.12141000  0.34131000  0.38343000  1.0
  H  H4  1  0.31771000  0.89857000  0.60563000  1.0
  H  H5  1  0.86125000  0.34340000  0.38515000  1.0
  H  H6  1  0.87510000  0.77661000  0.57997000  1.0
  H  H7  1  0.87156000  0.68748000  0.71298000  1.0
  H  H8  1  0.13616000  0.77282000  0.58148000  1.0
  H  H9  1  0.13356000  0.68299000  0.71410000  1.0
  H  H10  1  0.32726000  0.11269000  0.61735000  1.0
  H  H11  1  0.48886000  0.10858000  0.69026000  1.0
  H  H12  1  0.70009000  0.90508000  0.58701000  1.0
  H  H13  1  0.70930000  0.89202000  0.42883000  1.0
  H  H14  1  0.70544000  0.11699000  0.57031000  1.0
  H  H15  1  0.49375000  0.89729000  0.30560000  1.0
  H  H16  1  0.33055000  0.88159000  0.37316000  1.0
  H  H17  1  0.30839000  0.09294000  0.40062000  1.0
  H  H18  1  0.57084000  0.10070000  0.24436000  1.0
  H  H19  1  0.70189000  0.10468000  0.41285000  1.0
  H  H20  1  0.28515000  0.43202000  0.88007000  1.0
  H  H21  1  0.28518000  0.42754000  0.10392000  1.0
  H  H22  1  0.77171000  0.65953000  0.11640000  1.0
  H  H23  1  0.82933000  0.50574000  0.11065000  1.0
  H  H24  1  0.77020000  0.66528000  0.89079000  1.0
  H  H25  1  0.83047000  0.51178000  0.88342000  1.0
  C  C26  1  0.49420000  0.49957000  0.73094000  1.0
  C  C27  1  0.60999000  0.52539000  0.05961000  1.0
  C  C28  1  0.75761000  0.57046000  0.07062000  1.0
  C  C29  1  0.50056000  0.74161000  0.49866000  1.0
  C  C30  1  0.75782000  0.57351000  0.92817000  1.0
  C  C31  1  0.07069000  0.58239000  0.54867000  1.0
  C  C32  1  0.06539000  0.41206000  0.43202000  1.0
  C  C33  1  0.92185000  0.41349000  0.43258000  1.0
  C  C34  1  0.92737000  0.58419000  0.54862000  1.0
  C  C35  1  0.92120000  0.69900000  0.62540000  1.0
  C  C36  1  0.08476000  0.69648000  0.62610000  1.0
  C  C37  1  0.50098000  0.12062000  0.49649000  1.0
  C  C38  1  0.49349000  0.49405000  0.25912000  1.0
  C  C39  1  0.49609000  0.26017000  0.49501000  1.0
  C  C40  1  0.42448000  0.93223000  0.60957000  1.0
  C  C41  1  0.43052000  0.07371000  0.61147000  1.0
  C  C42  1  0.65040000  0.93325000  0.50296000  1.0
  C  C43  1  0.43177000  0.92592000  0.38393000  1.0
  C  C44  1  0.50288000  0.88154000  0.49931000  1.0
  C  C45  1  0.46074000  0.11778000  0.26862000  1.0
  C  C46  1  0.64933000  0.07384000  0.49442000  1.0
  C  C47  1  0.41619000  0.06710000  0.38778000  1.0
  C  C48  1  0.61036000  0.52723000  0.93392000  1.0
  C  C49  1  0.49469000  0.49547000  0.86516000  1.0
  C  C50  1  0.37723000  0.45946000  0.93057000  1.0
  C  C51  1  0.37698000  0.45732000  0.05622000  1.0
  C  C52  1  0.49406000  0.49168000  0.12491000  1.0
  N  N53  1  0.14317000  0.49787000  0.49154000  1.0
  N  N54  1  0.84946000  0.50093000  0.49208000  1.0
  O  O55  1  0.61135000  0.50205000  0.67969000  1.0
  O  O56  1  0.37765000  0.50085000  0.67776000  1.0
  O  O57  1  0.61629000  0.68881000  0.50159000  1.0
  O  O58  1  0.38348000  0.68835000  0.49467000  1.0
  O  O59  1  0.61061000  0.50290000  0.31118000  1.0
  O  O60  1  0.37740000  0.48904000  0.31179000  1.0
  O  O61  1  0.61078000  0.31709000  0.48995000  1.0
  O  O62  1  0.37810000  0.30858000  0.49842000  1.0
  O  O63  1  0.38596000  0.17105000  0.19894000  1.0
