# generated using pymatgen
data_UP2H24C18(NO7)2
_symmetry_space_group_name_H-M   'P 1'
_cell_length_a   6.85360000
_cell_length_b   8.21825000
_cell_length_c   11.86380000
_cell_angle_alpha   81.80770000
_cell_angle_beta   83.39740000
_cell_angle_gamma   86.78170000
_symmetry_Int_Tables_number   1
_chemical_formula_structural   UP2H24C18(NO7)2
_chemical_formula_sum   'U1 P2 H24 C18 N2 O14'
_cell_volume   656.48076946
_cell_formula_units_Z   1
loop_
 _symmetry_equiv_pos_site_id
 _symmetry_equiv_pos_as_xyz
  1  'x, y, z'
loop_
 _atom_site_type_symbol
 _atom_site_label
 _atom_site_symmetry_multiplicity
 _atom_site_fract_x
 _atom_site_fract_y
 _atom_site_fract_z
 _atom_site_occupancy
  U  U0  1  0.49999000  0.00000000  0.50000000  1.0
  P  P1  1  0.40450000  0.66981000  0.76261000  1.0
  P  P2  1  0.59550000  0.33020000  0.23739000  1.0
  H  H3  1  0.59265000  0.02498000  0.77884000  1.0
  H  H4  1  0.40733000  0.97503000  0.22117000  1.0
  H  H5  1  0.88432000  0.13983000  0.83068000  1.0
  H  H6  1  0.11567000  0.86019000  0.16933000  1.0
  H  H7  1  0.90029000  0.75507000  0.11972000  1.0
  H  H8  1  0.09976000  0.24491000  0.88026000  1.0
  H  H9  1  0.61085000  0.64046000  0.06446000  1.0
  H  H10  1  0.38919000  0.35951000  0.93554000  1.0
  H  H11  1  0.27612000  0.85775000  0.88284000  1.0
  H  H12  1  0.72388000  0.14224000  0.11718000  1.0
  H  H13  1  0.33206000  0.66569000  0.96285000  1.0
  H  H14  1  0.66797000  0.33429000  0.03716000  1.0
  H  H15  1  0.04127000  0.80407000  0.70984000  1.0
  H  H16  1  0.95873000  0.19595000  0.29015000  1.0
  H  H17  1  0.90503000  0.62376000  0.76310000  1.0
  H  H18  1  0.09496000  0.37626000  0.23689000  1.0
  H  H19  1  0.03810000  0.64228000  0.62257000  1.0
  H  H20  1  0.96192000  0.35774000  0.37743000  1.0
  H  H21  1  0.47537000  0.31400000  0.71518000  1.0
  H  H22  1  0.52462000  0.68599000  0.28483000  1.0
  H  H23  1  0.73406000  0.34760000  0.70090000  1.0
  H  H24  1  0.26592000  0.65241000  0.29908000  1.0
  H  H25  1  0.58204000  0.47206000  0.60755000  1.0
  H  H26  1  0.41791000  0.52793000  0.39245000  1.0
  C  C27  1  0.57819000  0.82499000  0.91894000  1.0
  C  C28  1  0.42183000  0.17501000  0.08106000  1.0
  C  C29  1  0.65947000  0.96543000  0.85385000  1.0
  C  C30  1  0.34053000  0.03457000  0.14615000  1.0
  C  C31  1  0.82534000  0.03125000  0.88433000  1.0
  C  C32  1  0.17465000  0.96875000  0.11567000  1.0
  C  C33  1  0.91566000  0.96127000  0.98181000  1.0
  C  C34  1  0.08435000  0.03872000  0.01819000  1.0
  C  C35  1  0.83680000  0.81639000  0.04405000  1.0
  C  C36  1  0.16324000  0.18360000  0.95594000  1.0
  C  C37  1  0.67192000  0.74989000  0.01274000  1.0
  C  C38  1  0.32811000  0.25010000  0.98725000  1.0
  C  C39  1  0.39041000  0.75866000  0.89298000  1.0
  C  C40  1  0.60961000  0.24133000  0.10703000  1.0
  C  C41  1  0.03628000  0.67092000  0.71001000  1.0
  C  C42  1  0.96372000  0.32909000  0.28998000  1.0
  C  C43  1  0.58819000  0.40587000  0.69420000  1.0
  C  C44  1  0.41178000  0.59412000  0.30580000  1.0
  N  N45  1  0.81721000  0.79112000  0.38953000  1.0
  N  N46  1  0.18278000  0.20889000  0.61047000  1.0
  O  O47  1  0.32073000  0.90453000  0.43317000  1.0
  O  O48  1  0.67926000  0.09546000  0.56683000  1.0
  O  O49  1  0.45605000  0.79105000  0.65781000  1.0
  O  O50  1  0.54394000  0.20895000  0.34219000  1.0
  O  O51  1  0.20402000  0.58431000  0.76086000  1.0
  O  O52  1  0.79598000  0.41570000  0.23915000  1.0
  O  O53  1  0.55911000  0.52036000  0.77903000  1.0
  O  O54  1  0.44088000  0.47964000  0.22097000  1.0
  O  O55  1  0.75671000  0.93159000  0.33938000  1.0
  O  O56  1  0.24327000  0.06842000  0.66062000  1.0
  O  O57  1  0.94330000  0.70303000  0.34330000  1.0
  O  O58  1  0.05670000  0.29697000  0.65670000  1.0
  O  O59  1  0.73236000  0.74974000  0.49128000  1.0
  O  O60  1  0.26762000  0.25026000  0.50872000  1.0
