# generated using pymatgen
data_CuH6C8S2(N2Cl)2
_symmetry_space_group_name_H-M   'P 1'
_cell_length_a   8.62618000
_cell_length_b   11.66800000
_cell_length_c   12.29680000
_cell_angle_alpha   90.02560000
_cell_angle_beta   90.00900000
_cell_angle_gamma   72.63500000
_symmetry_Int_Tables_number   1
_chemical_formula_structural   CuH6C8S2(N2Cl)2
_chemical_formula_sum   'Cu4 H24 C32 S8 N16 Cl8'
_cell_volume   1181.26631349
_cell_formula_units_Z   4
loop_
 _symmetry_equiv_pos_site_id
 _symmetry_equiv_pos_as_xyz
  1  'x, y, z'
loop_
 _atom_site_type_symbol
 _atom_site_label
 _atom_site_symmetry_multiplicity
 _atom_site_fract_x
 _atom_site_fract_y
 _atom_site_fract_z
 _atom_site_occupancy
  Cu  Cu0  1  0.73765000  0.87775000  0.24651000  1.0
  Cu  Cu1  1  0.26248000  0.62207000  0.74651000  1.0
  Cu  Cu2  1  0.26239000  0.12224000  0.75348000  1.0
  Cu  Cu3  1  0.73751000  0.37793000  0.25350000  1.0
  H  H4  1  0.99557000  0.78897000  0.40935000  1.0
  H  H5  1  0.00445000  0.71103000  0.90936000  1.0
  H  H6  1  0.00452000  0.21097000  0.59068000  1.0
  H  H7  1  0.99546000  0.28899000  0.09066000  1.0
  H  H8  1  0.24730000  0.83296000  0.47189000  1.0
  H  H9  1  0.75271000  0.66706000  0.97191000  1.0
  H  H10  1  0.75266000  0.16702000  0.52811000  1.0
  H  H11  1  0.24729000  0.33293000  0.02809000  1.0
  H  H12  1  0.31184000  0.01296000  0.38653000  1.0
  H  H13  1  0.68804000  0.48705000  0.88651000  1.0
  H  H14  1  0.68810000  0.98705000  0.61346000  1.0
  H  H15  1  0.31192000  0.51295000  0.11348000  1.0
  H  H16  1  0.46548000  0.47408000  0.40288000  1.0
  H  H17  1  0.53444000  0.02602000  0.90285000  1.0
  H  H18  1  0.53454000  0.52593000  0.59710000  1.0
  H  H19  1  0.46555000  0.97402000  0.09715000  1.0
  H  H20  1  0.20144000  0.43789000  0.45118000  1.0
  H  H21  1  0.79859000  0.06216000  0.95115000  1.0
  H  H22  1  0.79859000  0.56211000  0.54882000  1.0
  H  H23  1  0.20143000  0.93785000  0.04884000  1.0
  H  H24  1  0.14798000  0.25146000  0.37098000  1.0
  H  H25  1  0.85204000  0.24849000  0.87100000  1.0
  H  H26  1  0.85205000  0.74855000  0.62902000  1.0
  H  H27  1  0.14802000  0.75150000  0.12901000  1.0
  C  C28  1  0.02788000  0.86602000  0.37799000  1.0
  C  C29  1  0.97206000  0.63395000  0.87798000  1.0
  C  C30  1  0.97212000  0.13396000  0.62201000  1.0
  C  C31  1  0.02791000  0.36603000  0.12201000  1.0
  C  C32  1  0.16761000  0.89078000  0.41255000  1.0
  C  C33  1  0.83239000  0.60921000  0.91259000  1.0
  C  C34  1  0.83237000  0.10921000  0.58743000  1.0
  C  C35  1  0.16760000  0.39078000  0.08742000  1.0
  C  C36  1  0.20093000  0.99046000  0.36725000  1.0
  C  C37  1  0.79897000  0.50955000  0.86727000  1.0
  C  C38  1  0.79902000  0.00954000  0.63272000  1.0
  C  C39  1  0.20101000  0.49045000  0.13274000  1.0
  C  C40  1  0.96446000  0.03324000  0.27036000  1.0
  C  C41  1  0.03548000  0.46665000  0.77032000  1.0
  C  C42  1  0.03555000  0.96672000  0.72964000  1.0
  C  C43  1  0.96454000  0.53333000  0.22968000  1.0
  C  C44  1  0.50598000  0.22511000  0.26944000  1.0
  C  C45  1  0.49401000  0.27486000  0.76947000  1.0
  C  C46  1  0.49400000  0.77490000  0.73055000  1.0
  C  C47  1  0.50597000  0.72518000  0.23053000  1.0
  C  C48  1  0.43458000  0.39615000  0.37219000  1.0
  C  C49  1  0.56538000  0.10388000  0.87213000  1.0
  C  C50  1  0.56544000  0.60386000  0.62780000  1.0
  C  C51  1  0.43463000  0.89615000  0.12786000  1.0
  C  C52  1  0.28896000  0.37566000  0.39877000  1.0
  C  C53  1  0.71105000  0.12434000  0.89874000  1.0
  C  C54  1  0.71107000  0.62435000  0.60122000  1.0
  C  C55  1  0.28896000  0.87567000  0.10126000  1.0
  C  C56  1  0.26061000  0.27324000  0.35555000  1.0
  C  C57  1  0.73940000  0.22675000  0.85557000  1.0
  C  C58  1  0.73941000  0.72677000  0.64444000  1.0
  C  C59  1  0.26064000  0.77325000  0.14444000  1.0
  S  S60  1  0.84829000  0.14045000  0.17666000  1.0
  S  S61  1  0.15169000  0.35947000  0.67657000  1.0
  S  S62  1  0.15170000  0.85952000  0.82334000  1.0
  S  S63  1  0.84835000  0.64051000  0.32345000  1.0
  S  S64  1  0.62441000  0.11761000  0.17715000  1.0
  S  S65  1  0.37553000  0.38239000  0.67720000  1.0
  S  S66  1  0.37556000  0.88240000  0.82283000  1.0
  S  S67  1  0.62446000  0.61766000  0.32282000  1.0
  N  N68  1  0.92681000  0.93511000  0.30350000  1.0
  N  N69  1  0.07310000  0.56484000  0.80346000  1.0
  N  N70  1  0.07321000  0.06487000  0.69651000  1.0
  N  N71  1  0.92689000  0.43517000  0.19655000  1.0
  N  N72  1  0.09645000  0.06312000  0.29825000  1.0
  N  N73  1  0.90347000  0.43683000  0.79825000  1.0
  N  N74  1  0.90353000  0.93687000  0.70172000  1.0
  N  N75  1  0.09653000  0.56317000  0.20176000  1.0
  N  N76  1  0.54427000  0.32202000  0.30546000  1.0
  N  N77  1  0.45567000  0.17798000  0.80541000  1.0
  N  N78  1  0.45573000  0.67797000  0.69453000  1.0
  N  N79  1  0.54431000  0.82205000  0.19459000  1.0
  N  N80  1  0.37036000  0.19761000  0.29166000  1.0
  N  N81  1  0.62962000  0.30238000  0.79173000  1.0
  N  N82  1  0.62963000  0.80240000  0.70832000  1.0
  N  N83  1  0.37041000  0.69763000  0.20828000  1.0
  Cl  Cl84  1  0.62929000  0.90355000  0.41543000  1.0
  Cl  Cl85  1  0.36982000  0.59766000  0.91562000  1.0
  Cl  Cl86  1  0.37070000  0.09650000  0.58453000  1.0
  Cl  Cl87  1  0.63020000  0.40235000  0.08443000  1.0
  Cl  Cl88  1  0.83811000  0.85779000  0.07317000  1.0
  Cl  Cl89  1  0.16194000  0.64212000  0.57315000  1.0
  Cl  Cl90  1  0.16199000  0.14209000  0.92691000  1.0
  Cl  Cl91  1  0.83795000  0.35796000  0.42682000  1.0
