# generated using pymatgen
data_CuH14C16S3IN2
_symmetry_space_group_name_H-M   'P 1'
_cell_length_a   8.16087000
_cell_length_b   10.28300000
_cell_length_c   11.15640000
_cell_angle_alpha   74.66030000
_cell_angle_beta   73.38250000
_cell_angle_gamma   80.85600000
_symmetry_Int_Tables_number   1
_chemical_formula_structural   CuH14C16S3IN2
_chemical_formula_sum   'Cu2 H28 C32 S6 I2 N4'
_cell_volume   861.64450470
_cell_formula_units_Z   2
loop_
 _symmetry_equiv_pos_site_id
 _symmetry_equiv_pos_as_xyz
  1  'x, y, z'
loop_
 _atom_site_type_symbol
 _atom_site_label
 _atom_site_symmetry_multiplicity
 _atom_site_fract_x
 _atom_site_fract_y
 _atom_site_fract_z
 _atom_site_occupancy
  Cu  Cu0  1  0.50396000  0.92434000  0.62362000  1.0
  Cu  Cu1  1  0.49603000  0.07566000  0.37638000  1.0
  H  H2  1  0.90583000  0.32675000  0.37916000  1.0
  H  H3  1  0.09416000  0.67325000  0.62084000  1.0
  H  H4  1  0.87754000  0.08344000  0.70346000  1.0
  H  H5  1  0.12246000  0.91656000  0.29653000  1.0
  H  H6  1  0.32400000  0.81896000  0.90644000  1.0
  H  H7  1  0.67599000  0.18105000  0.09356000  1.0
  H  H8  1  0.11643000  0.12932000  0.39000000  1.0
  H  H9  1  0.88357000  0.87068000  0.61000000  1.0
  H  H10  1  0.55351000  0.83980000  0.15551000  1.0
  H  H11  1  0.44651000  0.16019000  0.84449000  1.0
  H  H12  1  0.76969000  0.84192000  0.14888000  1.0
  H  H13  1  0.23033000  0.15807000  0.85113000  1.0
  H  H14  1  0.02156000  0.80270000  0.03093000  1.0
  H  H15  1  0.97844000  0.19731000  0.96907000  1.0
  H  H16  1  0.66718000  0.66340000  0.34790000  1.0
  H  H17  1  0.33282000  0.33659000  0.65210000  1.0
  H  H18  1  0.72377000  0.48846000  0.39583000  1.0
  H  H19  1  0.27624000  0.51153000  0.60418000  1.0
  H  H20  1  0.51550000  0.36620000  0.31908000  1.0
  H  H21  1  0.48450000  0.63380000  0.68092000  1.0
  H  H22  1  0.18811000  0.08492000  0.59306000  1.0
  H  H23  1  0.81189000  0.91508000  0.40694000  1.0
  H  H24  1  0.81303000  0.34092000  0.21312000  1.0
  H  H25  1  0.18698000  0.65908000  0.78687000  1.0
  H  H26  1  0.32520000  0.57784000  0.29095000  1.0
  H  H27  1  0.67480000  0.42216000  0.70905000  1.0
  H  H28  1  0.69809000  0.68905000  0.89093000  1.0
  H  H29  1  0.30191000  0.31095000  0.10906000  1.0
  C  C30  1  0.04020000  0.34349000  0.35942000  1.0
  C  C31  1  0.95980000  0.65651000  0.64058000  1.0
  C  C32  1  0.97213000  0.02228000  0.75228000  1.0
  C  C33  1  0.02787000  0.97772000  0.24772000  1.0
  C  C34  1  0.92063000  0.93956000  0.87668000  1.0
  C  C35  1  0.07937000  0.06044000  0.12332000  1.0
  C  C36  1  0.22107000  0.87503000  0.86418000  1.0
  C  C37  1  0.77893000  0.12497000  0.13582000  1.0
  C  C38  1  0.15819000  0.23053000  0.36872000  1.0
  C  C39  1  0.84180000  0.76947000  0.63128000  1.0
  C  C40  1  0.71878000  0.67265000  0.08790000  1.0
  C  C41  1  0.28123000  0.32735000  0.91210000  1.0
  C  C42  1  0.68491000  0.81778000  0.09840000  1.0
  C  C43  1  0.31510000  0.18221000  0.90161000  1.0
  C  C44  1  0.05025000  0.86659000  0.93398000  1.0
  C  C45  1  0.94975000  0.13341000  0.06602000  1.0
  C  C46  1  0.75350000  0.56267000  0.19067000  1.0
  C  C47  1  0.24651000  0.43733000  0.80933000  1.0
  C  C48  1  0.75814000  0.57908000  0.31887000  1.0
  C  C49  1  0.24186000  0.42092000  0.68113000  1.0
  C  C50  1  0.37982000  0.36231000  0.32879000  1.0
  C  C51  1  0.62018000  0.63769000  0.67120000  1.0
  C  C52  1  0.09572000  0.47325000  0.33093000  1.0
  C  C53  1  0.90428000  0.52675000  0.66908000  1.0
  C  C54  1  0.14484000  0.02334000  0.69007000  1.0
  C  C55  1  0.85516000  0.97665000  0.30993000  1.0
  C  C56  1  0.78258000  0.44014000  0.15600000  1.0
  C  C57  1  0.21742000  0.55986000  0.84400000  1.0
  C  C58  1  0.27217000  0.48062000  0.31405000  1.0
  C  C59  1  0.72783000  0.51938000  0.68595000  1.0
  C  C60  1  0.71990000  0.62827000  0.98152000  1.0
  C  C61  1  0.28010000  0.37173000  0.01848000  1.0
  S  S62  1  0.70030000  0.94072000  0.94704000  1.0
  S  S63  1  0.29970000  0.05929000  0.05297000  1.0
  S  S64  1  0.96484000  0.62500000  0.32065000  1.0
  S  S65  1  0.03515000  0.37500000  0.67936000  1.0
  S  S66  1  0.76554000  0.45696000  0.00335000  1.0
  S  S67  1  0.23446000  0.54304000  0.99665000  1.0
  I  I68  1  0.36984000  0.84084000  0.44501000  1.0
  I  I69  1  0.63015000  0.15916000  0.55500000  1.0
  N  N70  1  0.27032000  0.94867000  0.74243000  1.0
  N  N71  1  0.72968000  0.05133000  0.25756000  1.0
  N  N72  1  0.32703000  0.23696000  0.35472000  1.0
  N  N73  1  0.67297000  0.76304000  0.64528000  1.0
