# generated using pymatgen
data_CoH32C29(N2O3)2
_symmetry_space_group_name_H-M   'P 1'
_cell_length_a   8.13080000
_cell_length_b   12.47540000
_cell_length_c   14.06830000
_cell_angle_alpha   97.74610000
_cell_angle_beta   99.20160000
_cell_angle_gamma   95.88130000
_symmetry_Int_Tables_number   1
_chemical_formula_structural   CoH32C29(N2O3)2
_chemical_formula_sum   'Co2 H64 C58 N8 O12'
_cell_volume   1384.53521520
_cell_formula_units_Z   2
loop_
 _symmetry_equiv_pos_site_id
 _symmetry_equiv_pos_as_xyz
  1  'x, y, z'
loop_
 _atom_site_type_symbol
 _atom_site_label
 _atom_site_symmetry_multiplicity
 _atom_site_fract_x
 _atom_site_fract_y
 _atom_site_fract_z
 _atom_site_occupancy
  Co  Co0  1  0.59524000  0.39912000  0.27617000  1.0
  Co  Co1  1  0.40476000  0.60088000  0.72383000  1.0
  H  H2  1  0.48287000  0.01635000  0.60806000  1.0
  H  H3  1  0.51714000  0.98366000  0.39194000  1.0
  H  H4  1  0.62995000  0.09464000  0.55661000  1.0
  H  H5  1  0.37005000  0.90537000  0.44339000  1.0
  H  H6  1  0.87201000  0.58311000  0.99618000  1.0
  H  H7  1  0.12798000  0.41688000  0.00382000  1.0
  H  H8  1  0.87203000  0.47565000  0.06658000  1.0
  H  H9  1  0.12798000  0.52435000  0.93342000  1.0
  H  H10  1  0.15437000  0.66598000  0.09118000  1.0
  H  H11  1  0.84562000  0.33402000  0.90881000  1.0
  H  H12  1  0.99684000  0.65275000  0.16499000  1.0
  H  H13  1  0.00316000  0.34725000  0.83501000  1.0
  H  H14  1  0.99464000  0.27182000  0.14265000  1.0
  H  H15  1  0.00535000  0.72818000  0.85734000  1.0
  H  H16  1  0.16689000  0.18292000  0.03341000  1.0
  H  H17  1  0.83311000  0.81708000  0.96659000  1.0
  H  H18  1  0.54421000  0.14152000  0.94031000  1.0
  H  H19  1  0.45578000  0.85849000  0.05969000  1.0
  H  H20  1  0.71558000  0.05183000  0.82617000  1.0
  H  H21  1  0.28442000  0.94818000  0.17383000  1.0
  H  H22  1  0.24952000  0.02021000  0.92673000  1.0
  H  H23  1  0.75047000  0.97978000  0.07327000  1.0
  H  H24  1  0.26876000  0.15833000  0.90490000  1.0
  H  H25  1  0.73123000  0.84167000  0.09510000  1.0
  H  H26  1  0.40835000  0.05126000  0.78864000  1.0
  H  H27  1  0.59165000  0.94874000  0.21136000  1.0
  H  H28  1  0.22967000  0.09923000  0.72758000  1.0
  H  H29  1  0.77033000  0.90077000  0.27242000  1.0
  H  H30  1  0.27858000  0.86568000  0.74909000  1.0
  H  H31  1  0.72142000  0.13432000  0.25092000  1.0
  H  H32  1  0.07226000  0.90438000  0.74392000  1.0
  H  H33  1  0.92774000  0.09561000  0.25608000  1.0
  H  H34  1  0.93308000  0.77594000  0.31947000  1.0
  H  H35  1  0.06693000  0.22406000  0.68053000  1.0
  H  H36  1  0.91388000  0.57734000  0.54441000  1.0
  H  H37  1  0.08613000  0.42266000  0.45560000  1.0
  H  H38  1  0.08105000  0.72659000  0.66720000  1.0
  H  H39  1  0.91896000  0.27340000  0.33279000  1.0
  H  H40  1  0.36391000  0.18264000  0.19852000  1.0
  H  H41  1  0.63609000  0.81735000  0.80149000  1.0
  H  H42  1  0.24531000  0.08090000  0.50845000  1.0
  H  H43  1  0.75468000  0.91910000  0.49156000  1.0
  H  H44  1  0.38280000  0.19073000  0.57978000  1.0
  H  H45  1  0.61720000  0.80927000  0.42023000  1.0
  H  H46  1  0.09403000  0.93008000  0.44222000  1.0
  H  H47  1  0.90597000  0.06992000  0.55778000  1.0
  H  H48  1  0.24850000  0.37754000  0.33543000  1.0
  H  H49  1  0.75151000  0.62246000  0.66457000  1.0
  H  H50  1  0.68212000  0.29201000  0.55968000  1.0
  H  H51  1  0.31788000  0.70799000  0.44032000  1.0
  H  H52  1  0.50982000  0.36902000  0.56205000  1.0
  H  H53  1  0.49017000  0.63099000  0.43795000  1.0
  H  H54  1  0.66761000  0.40265000  0.49276000  1.0
  H  H55  1  0.33238000  0.59735000  0.50724000  1.0
  H  H56  1  0.98393000  0.47983000  0.25332000  1.0
  H  H57  1  0.01607000  0.52017000  0.74668000  1.0
  H  H58  1  0.22683000  0.05303000  0.32164000  1.0
  H  H59  1  0.77317000  0.94698000  0.67836000  1.0
  H  H60  1  0.55892000  0.54004000  0.11759000  1.0
  H  H61  1  0.44108000  0.45996000  0.88241000  1.0
  H  H62  1  0.49009000  0.66797000  0.14647000  1.0
  H  H63  1  0.50992000  0.33204000  0.85353000  1.0
  H  H64  1  0.38100000  0.57689000  0.04257000  1.0
  H  H65  1  0.61900000  0.42311000  0.95743000  1.0
  C  C66  1  0.50405000  0.04750000  0.54106000  1.0
  C  C67  1  0.49595000  0.95251000  0.45894000  1.0
  C  C68  1  0.95366000  0.53204000  0.03513000  1.0
  C  C69  1  0.04634000  0.46796000  0.96487000  1.0
  C  C70  1  0.07097000  0.60738000  0.11861000  1.0
  C  C71  1  0.92903000  0.39262000  0.88139000  1.0
  C  C72  1  0.65034000  0.26990000  0.11012000  1.0
  C  C73  1  0.34965000  0.73010000  0.88988000  1.0
  C  C74  1  0.75778000  0.21332000  0.04776000  1.0
  C  C75  1  0.24222000  0.78668000  0.95224000  1.0
  C  C76  1  0.93310000  0.22288000  0.07361000  1.0
  C  C77  1  0.06689000  0.77712000  0.92639000  1.0
  C  C78  1  0.03068000  0.17292000  0.01173000  1.0
  C  C79  1  0.96931000  0.82708000  0.98827000  1.0
  C  C80  1  0.68056000  0.14958000  0.95877000  1.0
  C  C81  1  0.31943000  0.85042000  0.04123000  1.0
  C  C82  1  0.77504000  0.10014000  0.89591000  1.0
  C  C83  1  0.22495000  0.89986000  0.10409000  1.0
  C  C84  1  0.95128000  0.11335000  0.92123000  1.0
  C  C85  1  0.04872000  0.88665000  0.07877000  1.0
  C  C86  1  0.21374000  0.07429000  0.87313000  1.0
  C  C87  1  0.78625000  0.92570000  0.12687000  1.0
  C  C88  1  0.27039000  0.04185000  0.77676000  1.0
  C  C89  1  0.72960000  0.95814000  0.22324000  1.0
  C  C90  1  0.19783000  0.92682000  0.72718000  1.0
  C  C91  1  0.80218000  0.07318000  0.27282000  1.0
  C  C92  1  0.49820000  0.26188000  0.42801000  1.0
  C  C93  1  0.50179000  0.73812000  0.57199000  1.0
  C  C94  1  0.80220000  0.58162000  0.35209000  1.0
  C  C95  1  0.19780000  0.41838000  0.64792000  1.0
  C  C96  1  0.96580000  0.76690000  0.39595000  1.0
  C  C97  1  0.03421000  0.23310000  0.60405000  1.0
  C  C98  1  0.90970000  0.66834000  0.42505000  1.0
  C  C99  1  0.09031000  0.33166000  0.57495000  1.0
  C  C100  1  0.95321000  0.65526000  0.52284000  1.0
  C  C101  1  0.04679000  0.34474000  0.47716000  1.0
  C  C102  1  0.04622000  0.73929000  0.59187000  1.0
  C  C103  1  0.95378000  0.26071000  0.40813000  1.0
  C  C104  1  0.09616000  0.83874000  0.56224000  1.0
  C  C105  1  0.90385000  0.16126000  0.43776000  1.0
  C  C106  1  0.38584000  0.18894000  0.27731000  1.0
  C  C107  1  0.61417000  0.81106000  0.72268000  1.0
  C  C108  1  0.37273000  0.12403000  0.51892000  1.0
  C  C109  1  0.62727000  0.87598000  0.48108000  1.0
  C  C110  1  0.05685000  0.85176000  0.46368000  1.0
  C  C111  1  0.94315000  0.14824000  0.53632000  1.0
  C  C112  1  0.33870000  0.53084000  0.17919000  1.0
  C  C113  1  0.66130000  0.46916000  0.82081000  1.0
  C  C114  1  0.24459000  0.43307000  0.28261000  1.0
  C  C115  1  0.75542000  0.56693000  0.71738000  1.0
  C  C116  1  0.59448000  0.33507000  0.51550000  1.0
  C  C117  1  0.40551000  0.66493000  0.48450000  1.0
  C  C118  1  0.11400000  0.48389000  0.24440000  1.0
  C  C119  1  0.88602000  0.51612000  0.75560000  1.0
  C  C120  1  0.31849000  0.12533000  0.33714000  1.0
  C  C121  1  0.68149000  0.87466000  0.66287000  1.0
  C  C122  1  0.44687000  0.58155000  0.11761000  1.0
  C  C123  1  0.55314000  0.41845000  0.88238000  1.0
  N  N124  1  0.38380000  0.46243000  0.24188000  1.0
  N  N125  1  0.61621000  0.53758000  0.75811000  1.0
  N  N126  1  0.39001000  0.17187000  0.43154000  1.0
  N  N127  1  0.60998000  0.82814000  0.56847000  1.0
  N  N128  1  0.17503000  0.54577000  0.18021000  1.0
  N  N129  1  0.82497000  0.45423000  0.81978000  1.0
  N  N130  1  0.49751000  0.27352000  0.33449000  1.0
  N  N131  1  0.50249000  0.72648000  0.66551000  1.0
  O  O132  1  0.73143000  0.33489000  0.18762000  1.0
  O  O133  1  0.26857000  0.66511000  0.81238000  1.0
  O  O134  1  0.03302000  0.06736000  0.85189000  1.0
  O  O135  1  0.96697000  0.93263000  0.14811000  1.0
  O  O136  1  0.74623000  0.49427000  0.38440000  1.0
  O  O137  1  0.25377000  0.50573000  0.61560000  1.0
  O  O138  1  0.76750000  0.59333000  0.26411000  1.0
  O  O139  1  0.23251000  0.40666000  0.73589000  1.0
  O  O140  1  0.18278000  0.92771000  0.62355000  1.0
  O  O141  1  0.81723000  0.07229000  0.37645000  1.0
  O  O142  1  0.49334000  0.25485000  0.08672000  1.0
  O  O143  1  0.50666000  0.74515000  0.91328000  1.0
