# generated using pymatgen
data_ZnH5C24Br4N5O12
_symmetry_space_group_name_H-M   'P 1'
_cell_length_a   15.20770000
_cell_length_b   15.20780000
_cell_length_c   17.15730000
_cell_angle_alpha   92.24170000
_cell_angle_beta   92.17320000
_cell_angle_gamma   90.50990000
_symmetry_Int_Tables_number   1
_chemical_formula_structural   ZnH5C24Br4N5O12
_chemical_formula_sum   'Zn2 H10 C48 Br8 N10 O24'
_cell_volume   3961.96317906
_cell_formula_units_Z   2
loop_
 _symmetry_equiv_pos_site_id
 _symmetry_equiv_pos_as_xyz
  1  'x, y, z'
loop_
 _atom_site_type_symbol
 _atom_site_label
 _atom_site_symmetry_multiplicity
 _atom_site_fract_x
 _atom_site_fract_y
 _atom_site_fract_z
 _atom_site_occupancy
  Zn  Zn0  1  0.49592000  0.49576000  0.90923000  1.0
  Zn  Zn1  1  0.50416000  0.50417000  0.09075000  1.0
  H  H2  1  0.57069000  0.57035000  0.49072000  1.0
  H  H3  1  0.42940000  0.42967000  0.50923000  1.0
  H  H4  1  0.50287000  0.78041000  0.12435000  1.0
  H  H5  1  0.49166000  0.76917000  0.87555000  1.0
  H  H6  1  0.49706000  0.21922000  0.87495000  1.0
  H  H7  1  0.50948000  0.23104000  0.12374000  1.0
  H  H8  1  0.23059000  0.50772000  0.12458000  1.0
  H  H9  1  0.21983000  0.49692000  0.87577000  1.0
  H  H10  1  0.76917000  0.48993000  0.87612000  1.0
  H  H11  1  0.78052000  0.50183000  0.12493000  1.0
  C  C12  1  0.50364000  0.33103000  0.99867000  1.0
  C  C13  1  0.33116000  0.50335000  0.00005000  1.0
  C  C14  1  0.49667000  0.66885000  0.00008000  1.0
  C  C15  1  0.66895000  0.49594000  0.00117000  1.0
  C  C16  1  0.45533000  0.45423000  0.25935000  1.0
  C  C17  1  0.45518000  0.45423000  0.34146000  1.0
  C  C18  1  0.51215000  0.51193000  0.38719000  1.0
  C  C19  1  0.56672000  0.56729000  0.34374000  1.0
  C  C20  1  0.56248000  0.56326000  0.26188000  1.0
  C  C21  1  0.52144000  0.52116000  0.47214000  1.0
  C  C22  1  0.47879000  0.47871000  0.52780000  1.0
  C  C23  1  0.43263000  0.43343000  0.65621000  1.0
  C  C24  1  0.48806000  0.48794000  0.61276000  1.0
  C  C25  1  0.54587000  0.54480000  0.65850000  1.0
  C  C26  1  0.54587000  0.54461000  0.74061000  1.0
  C  C27  1  0.43668000  0.43763000  0.73808000  1.0
  C  C28  1  0.50120000  0.81629000  0.07071000  1.0
  C  C29  1  0.50159000  0.90850000  0.07192000  1.0
  C  C30  1  0.50537000  0.96165000  0.14293000  1.0
  C  C31  1  0.49433000  0.80987000  0.92917000  1.0
  C  C32  1  0.49667000  0.90192000  0.92788000  1.0
  C  C33  1  0.49423000  0.94852000  0.85676000  1.0
  C  C34  1  0.49958000  0.18346000  0.92865000  1.0
  C  C35  1  0.49713000  0.09134000  0.92768000  1.0
  C  C36  1  0.49291000  0.03827000  0.85669000  1.0
  C  C37  1  0.50607000  0.19026000  0.07018000  1.0
  C  C38  1  0.50565000  0.09815000  0.07173000  1.0
  C  C39  1  0.50807000  0.05145000  0.14286000  1.0
  C  C40  1  0.49701000  0.76784000  0.99997000  1.0
  C  C41  1  0.49969000  0.95320000  0.99986000  1.0
  C  C42  1  0.50360000  0.23208000  0.99927000  1.0
  C  C43  1  0.50084000  0.04677000  0.99980000  1.0
  C  C44  1  0.19001000  0.50502000  0.07093000  1.0
  C  C45  1  0.09795000  0.50234000  0.07216000  1.0
  C  C46  1  0.05121000  0.50437000  0.14325000  1.0
  C  C47  1  0.18386000  0.49838000  0.92939000  1.0
  C  C48  1  0.09165000  0.49777000  0.92813000  1.0
  C  C49  1  0.03864000  0.49405000  0.85709000  1.0
  C  C50  1  0.80986000  0.49321000  0.92970000  1.0
  C  C51  1  0.90198000  0.49353000  0.92821000  1.0
  C  C52  1  0.94884000  0.49127000  0.85711000  1.0
  C  C53  1  0.81638000  0.49936000  0.07125000  1.0
  C  C54  1  0.90851000  0.50161000  0.07227000  1.0
  C  C55  1  0.96146000  0.50557000  0.14330000  1.0
  C  C56  1  0.23217000  0.50264000  0.00016000  1.0
  C  C57  1  0.04681000  0.49941000  0.00015000  1.0
  C  C58  1  0.76790000  0.49567000  0.00060000  1.0
  C  C59  1  0.95322000  0.49813000  0.00018000  1.0
  Br  Br60  1  0.63573000  0.63737000  0.20715000  1.0
  Br  Br61  1  0.64686000  0.64826000  0.39490000  1.0
  Br  Br62  1  0.37898000  0.37703000  0.20056000  1.0
  Br  Br63  1  0.37698000  0.37522000  0.38594000  1.0
  Br  Br64  1  0.62493000  0.62294000  0.61403000  1.0
  Br  Br65  1  0.62321000  0.62078000  0.79942000  1.0
  Br  Br66  1  0.35159000  0.35336000  0.60504000  1.0
  Br  Br67  1  0.36249000  0.36441000  0.79278000  1.0
  N  N68  1  0.50766000  0.50754000  0.22001000  1.0
  N  N69  1  0.49249000  0.49234000  0.77995000  1.0
  N  N70  1  0.51041000  0.10283000  0.21802000  1.0
  N  N71  1  0.50941000  0.91691000  0.21809000  1.0
  N  N72  1  0.48965000  0.08294000  0.78154000  1.0
  N  N73  1  0.49066000  0.89719000  0.78161000  1.0
  N  N74  1  0.91667000  0.50858000  0.21843000  1.0
  N  N75  1  0.10239000  0.50772000  0.21842000  1.0
  N  N76  1  0.89760000  0.48906000  0.78193000  1.0
  N  N77  1  0.08351000  0.49018000  0.78195000  1.0
  O  O78  1  0.49952000  0.36425000  0.93192000  1.0
  O  O79  1  0.50666000  0.37128000  0.06494000  1.0
  O  O80  1  0.37097000  0.50756000  0.06649000  1.0
  O  O81  1  0.36485000  0.49865000  0.93350000  1.0
  O  O82  1  0.50146000  0.63524000  0.06663000  1.0
  O  O83  1  0.49262000  0.62896000  0.93364000  1.0
  O  O84  1  0.62880000  0.49301000  0.93491000  1.0
  O  O85  1  0.63564000  0.50022000  0.06793000  1.0
  O  O86  1  0.57239000  0.15516000  0.23039000  1.0
  O  O87  1  0.44894000  0.09031000  0.26157000  1.0
  O  O88  1  0.44781000  0.86666000  0.23078000  1.0
  O  O89  1  0.57520000  0.93226000  0.26119000  1.0
  O  O90  1  0.42677000  0.13216000  0.76954000  1.0
  O  O91  1  0.55086000  0.06845000  0.73761000  1.0
  O  O92  1  0.55237000  0.84677000  0.76946000  1.0
  O  O93  1  0.42564000  0.90800000  0.73775000  1.0
  O  O94  1  0.86753000  0.57149000  0.23070000  1.0
  O  O95  1  0.93099000  0.44716000  0.26210000  1.0
  O  O96  1  0.15289000  0.44604000  0.23032000  1.0
  O  O97  1  0.09141000  0.57253000  0.26257000  1.0
  O  O98  1  0.84530000  0.42707000  0.76940000  1.0
  O  O99  1  0.91018000  0.55061000  0.73853000  1.0
  O  O100  1  0.13377000  0.55183000  0.76946000  1.0
  O  O101  1  0.06826000  0.42446000  0.73868000  1.0
