# generated using pymatgen
data_HgH8C12(NO2)2
_symmetry_space_group_name_H-M   'P 1'
_cell_length_a   5.70470000
_cell_length_b   7.70312000
_cell_length_c   12.52590000
_cell_angle_alpha   89.99920000
_cell_angle_beta   89.99920000
_cell_angle_gamma   87.22930000
_symmetry_Int_Tables_number   1
_chemical_formula_structural   HgH8C12(NO2)2
_chemical_formula_sum   'Hg2 H16 C24 N4 O8'
_cell_volume   549.79453865
_cell_formula_units_Z   2
loop_
 _symmetry_equiv_pos_site_id
 _symmetry_equiv_pos_as_xyz
  1  'x, y, z'
loop_
 _atom_site_type_symbol
 _atom_site_label
 _atom_site_symmetry_multiplicity
 _atom_site_fract_x
 _atom_site_fract_y
 _atom_site_fract_z
 _atom_site_occupancy
  Hg  Hg0  1  0.99999000  0.99999000  0.00000000  1.0
  Hg  Hg1  1  0.99999000  0.50001000  0.50000000  1.0
  H  H2  1  0.43534000  0.80140000  0.70293000  1.0
  H  H3  1  0.56467000  0.69860000  0.20294000  1.0
  H  H4  1  0.56464000  0.19860000  0.29706000  1.0
  H  H5  1  0.43536000  0.30139000  0.79707000  1.0
  H  H6  1  0.67303000  0.89536000  0.54880000  1.0
  H  H7  1  0.32699000  0.60465000  0.04881000  1.0
  H  H8  1  0.32696000  0.10466000  0.45119000  1.0
  H  H9  1  0.67307000  0.39532000  0.95120000  1.0
  H  H10  1  0.04649000  0.05366000  0.58655000  1.0
  H  H11  1  0.95352000  0.44636000  0.08655000  1.0
  H  H12  1  0.95349000  0.94637000  0.41345000  1.0
  H  H13  1  0.04651000  0.55363000  0.91345000  1.0
  H  H14  1  0.16221000  0.09801000  0.77480000  1.0
  H  H15  1  0.83780000  0.40199000  0.27481000  1.0
  H  H16  1  0.83779000  0.90198000  0.22520000  1.0
  H  H17  1  0.16221000  0.59802000  0.72520000  1.0
  C  C18  1  0.67416000  0.89416000  0.82016000  1.0
  C  C19  1  0.32585000  0.60584000  0.32016000  1.0
  C  C20  1  0.32584000  0.10582000  0.17983000  1.0
  C  C21  1  0.67413000  0.39416000  0.67985000  1.0
  C  C22  1  0.54224000  0.82581000  0.91646000  1.0
  C  C23  1  0.45774000  0.67419000  0.41648000  1.0
  C  C24  1  0.45774000  0.17418000  0.08353000  1.0
  C  C25  1  0.54225000  0.32583000  0.58353000  1.0
  C  C26  1  0.59662000  0.86772000  0.71605000  1.0
  C  C27  1  0.40339000  0.63228000  0.21606000  1.0
  C  C28  1  0.40338000  0.13229000  0.28395000  1.0
  C  C29  1  0.59663000  0.36772000  0.78395000  1.0
  C  C30  1  0.72963000  0.92224000  0.63008000  1.0
  C  C31  1  0.27038000  0.57778000  0.13009000  1.0
  C  C32  1  0.27033000  0.07777000  0.36991000  1.0
  C  C33  1  0.72965000  0.42221000  0.86992000  1.0
  C  C34  1  0.93673000  0.00577000  0.64998000  1.0
  C  C35  1  0.06327000  0.49424000  0.14999000  1.0
  C  C36  1  0.06327000  0.99424000  0.35001000  1.0
  C  C37  1  0.93676000  0.50575000  0.85001000  1.0
  C  C38  1  0.00384000  0.03159000  0.75517000  1.0
  C  C39  1  0.99617000  0.46842000  0.25518000  1.0
  C  C40  1  0.99613000  0.96840000  0.24482000  1.0
  C  C41  1  0.00382000  0.53159000  0.74483000  1.0
  N  N42  1  0.87481000  0.97592000  0.83703000  1.0
  N  N43  1  0.12519000  0.52408000  0.33704000  1.0
  N  N44  1  0.12520000  0.02407000  0.16296000  1.0
  N  N45  1  0.87479000  0.47594000  0.66297000  1.0
  O  O46  1  0.33663000  0.77927000  0.89833000  1.0
  O  O47  1  0.66338000  0.72072000  0.39833000  1.0
  O  O48  1  0.66339000  0.22070000  0.10167000  1.0
  O  O49  1  0.33661000  0.27930000  0.60168000  1.0
  O  O50  1  0.64919000  0.81730000  0.00548000  1.0
  O  O51  1  0.35081000  0.68270000  0.50547000  1.0
  O  O52  1  0.35080000  0.18269000  0.99452000  1.0
  O  O53  1  0.64918000  0.31733000  0.49453000  1.0
