# generated using pymatgen
data_CuH10(C6N5)2
_symmetry_space_group_name_H-M   'P 1'
_cell_length_a   7.29665000
_cell_length_b   9.29909000
_cell_length_c   9.95949000
_cell_angle_alpha   89.99930000
_cell_angle_beta   88.09040000
_cell_angle_gamma   89.99980000
_symmetry_Int_Tables_number   1
_chemical_formula_structural   CuH10(C6N5)2
_chemical_formula_sum   'Cu2 H20 C24 N20'
_cell_volume   675.39806465
_cell_formula_units_Z   2
loop_
 _symmetry_equiv_pos_site_id
 _symmetry_equiv_pos_as_xyz
  1  'x, y, z'
loop_
 _atom_site_type_symbol
 _atom_site_label
 _atom_site_symmetry_multiplicity
 _atom_site_fract_x
 _atom_site_fract_y
 _atom_site_fract_z
 _atom_site_occupancy
  Cu  Cu0  1  0.26569000  0.44422000  0.39043000  1.0
  Cu  Cu1  1  0.73431000  0.94422000  0.60957000  1.0
  H  H2  1  0.63896000  0.59334000  0.32962000  1.0
  H  H3  1  0.36104000  0.09334000  0.67038000  1.0
  H  H4  1  0.82499000  0.64512000  0.12603000  1.0
  H  H5  1  0.17501000  0.14511000  0.87397000  1.0
  H  H6  1  0.69268000  0.58813000  0.89663000  1.0
  H  H7  1  0.30731000  0.08812000  0.10337000  1.0
  H  H8  1  0.38970000  0.47338000  0.89099000  1.0
  H  H9  1  0.61030000  0.97336000  0.10901000  1.0
  H  H10  1  0.11194000  0.40629000  0.90285000  1.0
  H  H11  1  0.88806000  0.90628000  0.09716000  1.0
  H  H12  1  0.82044000  0.27515000  0.93294000  1.0
  H  H13  1  0.17956000  0.77513000  0.06706000  1.0
  H  H14  1  0.70766000  0.21104000  0.16980000  1.0
  H  H15  1  0.29234000  0.71104000  0.83020000  1.0
  H  H16  1  0.89809000  0.28413000  0.36156000  1.0
  H  H17  1  0.10192000  0.78413000  0.63844000  1.0
  H  H18  1  0.40446000  0.78894000  0.40687000  1.0
  H  H19  1  0.59553000  0.28893000  0.59313000  1.0
  H  H20  1  0.90983000  0.55450000  0.57753000  1.0
  H  H21  1  0.09016000  0.05450000  0.42247000  1.0
  C  C22  1  0.58411000  0.57097000  0.23142000  1.0
  C  C23  1  0.41590000  0.07097000  0.76858000  1.0
  C  C24  1  0.68825000  0.60083000  0.11526000  1.0
  C  C25  1  0.31175000  0.10082000  0.88474000  1.0
  C  C26  1  0.61701000  0.56801000  0.99090000  1.0
  C  C27  1  0.38299000  0.06800000  0.00910000  1.0
  C  C28  1  0.44436000  0.50458000  0.98721000  1.0
  C  C29  1  0.55564000  0.00456000  0.01279000  1.0
  C  C30  1  0.34535000  0.47950000  0.10761000  1.0
  C  C31  1  0.65465000  0.97949000  0.89238000  1.0
  C  C32  1  0.16485000  0.40971000  0.11554000  1.0
  C  C33  1  0.83515000  0.90970000  0.88446000  1.0
  C  C34  1  0.06356000  0.37562000  0.00335000  1.0
  C  C35  1  0.93644000  0.87560000  0.99664000  1.0
  C  C36  1  0.89883000  0.30141000  0.02086000  1.0
  C  C37  1  0.10117000  0.80140000  0.97914000  1.0
  C  C38  1  0.83754000  0.26578000  0.15052000  1.0
  C  C39  1  0.16246000  0.76577000  0.84949000  1.0
  C  C40  1  0.94245000  0.30675000  0.25835000  1.0
  C  C41  1  0.05755000  0.80675000  0.74165000  1.0
  C  C42  1  0.43736000  0.72275000  0.49257000  1.0
  C  C43  1  0.56264000  0.22275000  0.50743000  1.0
  C  C44  1  0.95539000  0.44702000  0.60282000  1.0
  C  C45  1  0.04461000  0.94702000  0.39717000  1.0
  N  N46  1  0.41565000  0.51399000  0.22773000  1.0
  N  N47  1  0.58435000  0.01398000  0.77227000  1.0
  N  N48  1  0.10224000  0.37652000  0.24152000  1.0
  N  N49  1  0.89777000  0.87652000  0.75848000  1.0
  N  N50  1  0.37896000  0.58738000  0.51418000  1.0
  N  N51  1  0.62104000  0.08738000  0.48582000  1.0
  N  N52  1  0.45076000  0.54446000  0.63154000  1.0
  N  N53  1  0.54924000  0.04446000  0.36846000  1.0
  N  N54  1  0.54905000  0.65042000  0.67792000  1.0
  N  N55  1  0.45095000  0.15042000  0.32208000  1.0
  N  N56  1  0.54294000  0.76384000  0.59254000  1.0
  N  N57  1  0.45707000  0.26384000  0.40745000  1.0
  N  N58  1  0.09236000  0.37744000  0.53620000  1.0
  N  N59  1  0.90764000  0.87744000  0.46380000  1.0
  N  N60  1  0.10351000  0.24576000  0.59277000  1.0
  N  N61  1  0.89649000  0.74576000  0.40724000  1.0
  N  N62  1  0.97724000  0.23780000  0.69030000  1.0
  N  N63  1  0.02276000  0.73780000  0.30970000  1.0
  N  N64  1  0.88166000  0.36297000  0.69927000  1.0
  N  N65  1  0.11834000  0.86298000  0.30073000  1.0
