# generated using pymatgen
data_CuH42C40(N3O)4
_symmetry_space_group_name_H-M   'P 1'
_cell_length_a   10.47630000
_cell_length_b   11.86200000
_cell_length_c   17.01660000
_cell_angle_alpha   89.99910000
_cell_angle_beta   76.76600000
_cell_angle_gamma   89.99910000
_symmetry_Int_Tables_number   1
_chemical_formula_structural   CuH42C40(N3O)4
_chemical_formula_sum   'Cu2 H84 C80 N24 O8'
_cell_volume   2058.49237802
_cell_formula_units_Z   2
loop_
 _symmetry_equiv_pos_site_id
 _symmetry_equiv_pos_as_xyz
  1  'x, y, z'
loop_
 _atom_site_type_symbol
 _atom_site_label
 _atom_site_symmetry_multiplicity
 _atom_site_fract_x
 _atom_site_fract_y
 _atom_site_fract_z
 _atom_site_occupancy
  Cu  Cu0  1  0.00000000  0.99999000  0.00000000  1.0
  Cu  Cu1  1  0.00000000  0.50000000  0.50000000  1.0
  H  H2  1  0.82461000  0.78598000  0.06637000  1.0
  H  H3  1  0.82462000  0.71401000  0.56637000  1.0
  H  H4  1  0.17538000  0.21402000  0.93364000  1.0
  H  H5  1  0.17538000  0.28599000  0.43364000  1.0
  H  H6  1  0.58320000  0.92156000  0.15464000  1.0
  H  H7  1  0.58316000  0.57843000  0.65464000  1.0
  H  H8  1  0.41682000  0.07844000  0.84536000  1.0
  H  H9  1  0.41683000  0.42156000  0.34536000  1.0
  H  H10  1  0.75385000  0.05940000  0.92404000  1.0
  H  H11  1  0.75385000  0.44060000  0.42404000  1.0
  H  H12  1  0.24616000  0.94059000  0.07596000  1.0
  H  H13  1  0.24617000  0.55941000  0.57596000  1.0
  H  H14  1  0.61443000  0.67473000  0.08118000  1.0
  H  H15  1  0.61442000  0.82527000  0.58118000  1.0
  H  H16  1  0.38558000  0.32526000  0.91881000  1.0
  H  H17  1  0.38558000  0.17474000  0.41881000  1.0
  H  H18  1  0.51469000  0.70107000  0.01216000  1.0
  H  H19  1  0.51469000  0.79892000  0.51215000  1.0
  H  H20  1  0.48531000  0.29892000  0.98784000  1.0
  H  H21  1  0.48531000  0.20107000  0.48785000  1.0
  H  H22  1  0.30299000  0.67617000  0.11042000  1.0
  H  H23  1  0.30298000  0.82385000  0.61041000  1.0
  H  H24  1  0.69701000  0.32382000  0.88959000  1.0
  H  H25  1  0.69702000  0.17616000  0.38959000  1.0
  H  H26  1  0.53586000  0.91644000  0.95169000  1.0
  H  H27  1  0.53584000  0.58356000  0.45171000  1.0
  H  H28  1  0.46416000  0.08354000  0.04829000  1.0
  H  H29  1  0.46417000  0.41646000  0.54828000  1.0
  H  H30  1  0.36118000  0.03356000  0.33808000  1.0
  H  H31  1  0.36114000  0.46644000  0.83808000  1.0
  H  H32  1  0.63884000  0.96643000  0.66192000  1.0
  H  H33  1  0.63884000  0.53356000  0.16192000  1.0
  H  H34  1  0.52269000  0.03923000  0.27668000  1.0
  H  H35  1  0.52266000  0.46078000  0.77669000  1.0
  H  H36  1  0.47732000  0.96077000  0.72331000  1.0
  H  H37  1  0.47732000  0.53922000  0.22331000  1.0
  H  H38  1  0.18620000  0.92625000  0.29574000  1.0
  H  H39  1  0.18617000  0.57377000  0.79574000  1.0
  H  H40  1  0.81381000  0.07376000  0.70426000  1.0
  H  H41  1  0.81383000  0.42624000  0.20426000  1.0
  H  H42  1  0.02562000  0.81074000  0.25981000  1.0
  H  H43  1  0.02560000  0.68928000  0.75980000  1.0
  H  H44  1  0.97439000  0.18926000  0.74020000  1.0
  H  H45  1  0.97440000  0.31072000  0.24019000  1.0
  H  H46  1  0.06230000  0.72744000  0.16958000  1.0
  H  H47  1  0.06228000  0.77258000  0.66958000  1.0
  H  H48  1  0.93771000  0.27255000  0.83042000  1.0
  H  H49  1  0.93772000  0.22743000  0.33042000  1.0
  H  H50  1  0.16520000  0.52435000  0.18403000  1.0
  H  H51  1  0.16520000  0.97567000  0.68404000  1.0
  H  H52  1  0.83481000  0.47565000  0.81597000  1.0
  H  H53  1  0.83481000  0.02433000  0.31597000  1.0
  H  H54  1  0.13116000  0.38568000  0.32198000  1.0
  H  H55  1  0.13116000  0.11433000  0.82198000  1.0
  H  H56  1  0.86883000  0.61431000  0.67803000  1.0
  H  H57  1  0.86883000  0.88567000  0.17803000  1.0
  H  H58  1  0.00255000  0.71415000  0.39343000  1.0
  H  H59  1  0.00252000  0.78585000  0.89342000  1.0
  H  H60  1  0.99745000  0.28584000  0.60658000  1.0
  H  H61  1  0.99746000  0.21414000  0.10659000  1.0
  H  H62  1  0.75308000  0.16828000  0.06493000  1.0
  H  H63  1  0.75307000  0.33173000  0.56493000  1.0
  H  H64  1  0.24693000  0.83174000  0.93506000  1.0
  H  H65  1  0.24692000  0.66827000  0.43507000  1.0
  H  H66  1  0.76639000  0.31026000  0.09708000  1.0
  H  H67  1  0.76638000  0.18975000  0.59709000  1.0
  H  H68  1  0.23362000  0.68976000  0.90290000  1.0
  H  H69  1  0.23360000  0.81025000  0.40292000  1.0
  H  H70  1  0.66504000  0.28065000  0.03070000  1.0
  H  H71  1  0.66503000  0.21938000  0.53069000  1.0
  H  H72  1  0.33497000  0.71938000  0.96929000  1.0
  H  H73  1  0.33497000  0.78063000  0.46931000  1.0
  H  H74  1  0.17549000  0.13759000  0.26905000  1.0
  H  H75  1  0.17547000  0.36241000  0.76905000  1.0
  H  H76  1  0.82451000  0.86240000  0.73096000  1.0
  H  H77  1  0.82451000  0.63759000  0.23095000  1.0
  H  H78  1  0.21063000  0.32469000  0.16744000  1.0
  H  H79  1  0.21061000  0.17531000  0.66745000  1.0
  H  H80  1  0.78937000  0.67530000  0.83256000  1.0
  H  H81  1  0.78936000  0.82469000  0.33254000  1.0
  H  H82  1  0.58044000  0.19899000  0.18035000  1.0
  H  H83  1  0.58042000  0.30101000  0.68036000  1.0
  H  H84  1  0.41956000  0.80099000  0.81964000  1.0
  H  H85  1  0.41956000  0.69898000  0.31964000  1.0
  C  C86  1  0.45539000  0.79236000  0.12548000  1.0
  C  C87  1  0.45538000  0.70764000  0.62548000  1.0
  C  C88  1  0.54462000  0.20763000  0.87452000  1.0
  C  C89  1  0.54462000  0.29236000  0.37452000  1.0
  C  C90  1  0.77374000  0.84243000  0.03349000  1.0
  C  C91  1  0.77375000  0.65757000  0.53350000  1.0
  C  C92  1  0.22625000  0.15757000  0.96651000  1.0
  C  C93  1  0.22625000  0.34244000  0.46651000  1.0
  C  C94  1  0.48453000  0.88568000  0.16869000  1.0
  C  C95  1  0.48450000  0.61432000  0.66869000  1.0
  C  C96  1  0.51548000  0.11431000  0.83130000  1.0
  C  C97  1  0.51549000  0.38569000  0.33130000  1.0
  C  C98  1  0.73403000  0.98221000  0.95868000  1.0
  C  C99  1  0.73403000  0.51780000  0.45869000  1.0
  C  C100  1  0.26598000  0.01779000  0.04131000  1.0
  C  C101  1  0.26598000  0.48221000  0.54131000  1.0
  C  C102  1  0.55900000  0.74058000  0.05795000  1.0
  C  C103  1  0.55900000  0.75942000  0.55795000  1.0
  C  C104  1  0.44099000  0.25941000  0.94204000  1.0
  C  C105  1  0.44100000  0.24059000  0.44205000  1.0
  C  C106  1  0.32877000  0.74723000  0.14463000  1.0
  C  C107  1  0.32877000  0.75278000  0.64462000  1.0
  C  C108  1  0.67123000  0.25276000  0.85538000  1.0
  C  C109  1  0.67124000  0.24722000  0.35538000  1.0
  C  C110  1  0.62673000  0.91243000  0.97153000  1.0
  C  C111  1  0.62673000  0.58757000  0.47153000  1.0
  C  C112  1  0.37327000  0.08757000  0.02847000  1.0
  C  C113  1  0.37327000  0.41244000  0.52847000  1.0
  C  C114  1  0.38864000  0.93368000  0.23028000  1.0
  C  C115  1  0.38862000  0.56633000  0.73027000  1.0
  C  C116  1  0.61137000  0.06632000  0.76972000  1.0
  C  C117  1  0.61138000  0.43368000  0.26973000  1.0
  C  C118  1  0.41849000  0.03638000  0.27532000  1.0
  C  C119  1  0.41846000  0.46362000  0.77533000  1.0
  C  C120  1  0.58152000  0.96361000  0.72468000  1.0
  C  C121  1  0.58152000  0.53638000  0.22467000  1.0
  C  C122  1  0.23119000  0.79548000  0.20570000  1.0
  C  C123  1  0.23116000  0.70453000  0.70569000  1.0
  C  C124  1  0.76883000  0.20451000  0.79430000  1.0
  C  C125  1  0.76884000  0.29548000  0.29431000  1.0
  C  C126  1  0.26219000  0.88826000  0.24826000  1.0
  C  C127  1  0.26217000  0.61175000  0.74825000  1.0
  C  C128  1  0.73782000  0.11173000  0.75174000  1.0
  C  C129  1  0.73783000  0.38827000  0.25175000  1.0
  C  C130  1  0.09357000  0.74869000  0.22527000  1.0
  C  C131  1  0.09355000  0.75133000  0.72527000  1.0
  C  C132  1  0.90644000  0.25130000  0.77474000  1.0
  C  C133  1  0.90644000  0.24868000  0.27474000  1.0
  C  C134  1  0.12909000  0.54067000  0.24798000  1.0
  C  C135  1  0.12909000  0.95934000  0.74798000  1.0
  C  C136  1  0.87092000  0.45932000  0.75202000  1.0
  C  C137  1  0.87091000  0.04066000  0.25202000  1.0
  C  C138  1  0.11152000  0.47446000  0.31615000  1.0
  C  C139  1  0.11151000  0.02555000  0.81615000  1.0
  C  C140  1  0.88848000  0.52554000  0.68386000  1.0
  C  C141  1  0.88849000  0.97445000  0.18386000  1.0
  C  C142  1  0.04163000  0.64270000  0.35592000  1.0
  C  C143  1  0.04161000  0.85731000  0.85591000  1.0
  C  C144  1  0.95837000  0.35730000  0.64409000  1.0
  C  C145  1  0.95838000  0.14269000  0.14410000  1.0
  C  C146  1  0.87375000  0.27904000  0.97441000  1.0
  C  C147  1  0.87375000  0.22097000  0.47441000  1.0
  C  C148  1  0.12626000  0.72098000  0.02558000  1.0
  C  C149  1  0.12625000  0.77903000  0.52560000  1.0
  C  C150  1  0.75766000  0.25675000  0.04585000  1.0
  C  C151  1  0.75765000  0.24327000  0.54585000  1.0
  C  C152  1  0.24234000  0.74327000  0.95414000  1.0
  C  C153  1  0.24234000  0.75674000  0.45416000  1.0
  C  C154  1  0.26346000  0.17925000  0.23574000  1.0
  C  C155  1  0.26343000  0.32075000  0.73574000  1.0
  C  C156  1  0.73655000  0.82074000  0.76426000  1.0
  C  C157  1  0.73655000  0.67925000  0.26425000  1.0
  C  C158  1  0.28362000  0.27163000  0.18519000  1.0
  C  C159  1  0.28359000  0.22838000  0.68520000  1.0
  C  C160  1  0.71639000  0.72836000  0.81481000  1.0
  C  C161  1  0.71638000  0.77162000  0.31480000  1.0
  C  C162  1  0.47539000  0.21010000  0.18857000  1.0
  C  C163  1  0.47537000  0.28990000  0.68858000  1.0
  C  C164  1  0.52462000  0.78989000  0.81142000  1.0
  C  C165  1  0.52461000  0.71010000  0.31142000  1.0
  N  N166  1  0.82408000  0.93756000  0.99798000  1.0
  N  N167  1  0.82407000  0.56244000  0.49798000  1.0
  N  N168  1  0.17592000  0.06244000  0.00202000  1.0
  N  N169  1  0.17593000  0.43757000  0.50202000  1.0
  N  N170  1  0.65354000  0.82443000  0.01847000  1.0
  N  N171  1  0.65354000  0.67557000  0.51848000  1.0
  N  N172  1  0.34646000  0.17557000  0.98152000  1.0
  N  N173  1  0.34647000  0.32443000  0.48152000  1.0
  N  N174  1  0.08401000  0.64673000  0.27466000  1.0
  N  N175  1  0.08400000  0.85328000  0.77466000  1.0
  N  N176  1  0.91600000  0.35327000  0.72534000  1.0
  N  N177  1  0.91600000  0.14672000  0.22534000  1.0
  N  N178  1  0.05676000  0.53933000  0.38259000  1.0
  N  N179  1  0.05675000  0.96068000  0.88259000  1.0
  N  N180  1  0.94324000  0.46067000  0.61742000  1.0
  N  N181  1  0.94325000  0.03932000  0.11742000  1.0
  N  N182  1  0.38734000  0.14082000  0.23760000  1.0
  N  N183  1  0.38732000  0.35918000  0.73760000  1.0
  N  N184  1  0.61267000  0.85917000  0.76240000  1.0
  N  N185  1  0.61266000  0.64082000  0.26239000  1.0
  N  N186  1  0.41606000  0.29073000  0.15620000  1.0
  N  N187  1  0.41604000  0.20927000  0.65621000  1.0
  N  N188  1  0.58395000  0.70926000  0.84380000  1.0
  N  N189  1  0.58394000  0.79073000  0.34379000  1.0
  O  O190  1  0.87688000  0.37328000  0.93916000  1.0
  O  O191  1  0.87688000  0.12673000  0.43917000  1.0
  O  O192  1  0.12312000  0.62675000  0.06083000  1.0
  O  O193  1  0.12312000  0.87327000  0.56084000  1.0
  O  O194  1  0.95857000  0.20017000  0.95438000  1.0
  O  O195  1  0.95857000  0.29985000  0.45438000  1.0
  O  O196  1  0.04144000  0.79985000  0.04561000  1.0
  O  O197  1  0.04144000  0.70014000  0.54563000  1.0
