# generated using pymatgen
data_Hg2H9C7NCl4
_symmetry_space_group_name_H-M   'P 1'
_cell_length_a   3.98512000
_cell_length_b   16.35520000
_cell_length_c   20.10250000
_cell_angle_alpha   90.00020000
_cell_angle_beta   90.00100000
_cell_angle_gamma   93.60000000
_symmetry_Int_Tables_number   1
_chemical_formula_structural   Hg2H9C7NCl4
_chemical_formula_sum   'Hg8 H36 C28 N4 Cl16'
_cell_volume   1307.64394093
_cell_formula_units_Z   4
loop_
 _symmetry_equiv_pos_site_id
 _symmetry_equiv_pos_as_xyz
  1  'x, y, z'
loop_
 _atom_site_type_symbol
 _atom_site_label
 _atom_site_symmetry_multiplicity
 _atom_site_fract_x
 _atom_site_fract_y
 _atom_site_fract_z
 _atom_site_occupancy
  Hg  Hg0  1  0.00001000  0.50000000  0.99999000  1.0
  Hg  Hg1  1  0.99997000  0.00000000  0.50001000  1.0
  Hg  Hg2  1  0.54965000  0.78035000  0.95111000  1.0
  Hg  Hg3  1  0.45038000  0.71965000  0.45112000  1.0
  Hg  Hg4  1  0.45039000  0.21965000  0.04889000  1.0
  Hg  Hg5  1  0.54965000  0.28035000  0.54890000  1.0
  Hg  Hg6  1  0.99999000  0.00001000  0.00000000  1.0
  Hg  Hg7  1  0.00001000  0.50000000  0.50001000  1.0
  H  H8  1  0.79655000  0.34675000  0.91659000  1.0
  H  H9  1  0.20348000  0.15325000  0.41660000  1.0
  H  H10  1  0.20352000  0.65324000  0.08339000  1.0
  H  H11  1  0.79653000  0.84675000  0.58341000  1.0
  H  H12  1  0.90264000  0.40691000  0.70831000  1.0
  H  H13  1  0.09732000  0.09308000  0.20832000  1.0
  H  H14  1  0.09739000  0.59309000  0.29167000  1.0
  H  H15  1  0.90264000  0.90692000  0.79170000  1.0
  H  H16  1  0.15245000  0.58183000  0.86423000  1.0
  H  H17  1  0.84749000  0.91818000  0.36425000  1.0
  H  H18  1  0.84756000  0.41818000  0.13575000  1.0
  H  H19  1  0.15244000  0.08182000  0.63576000  1.0
  H  H20  1  0.60347000  0.24641000  0.83682000  1.0
  H  H21  1  0.39653000  0.25359000  0.33683000  1.0
  H  H22  1  0.39656000  0.75360000  0.16316000  1.0
  H  H23  1  0.60346000  0.74641000  0.66319000  1.0
  H  H24  1  0.89132000  0.24478000  0.76927000  1.0
  H  H25  1  0.10868000  0.25521000  0.26927000  1.0
  H  H26  1  0.10871000  0.75521000  0.23072000  1.0
  H  H27  1  0.89131000  0.74479000  0.73074000  1.0
  H  H28  1  0.48995000  0.28114000  0.75607000  1.0
  H  H29  1  0.51007000  0.21884000  0.25608000  1.0
  H  H30  1  0.51013000  0.71886000  0.24391000  1.0
  H  H31  1  0.48995000  0.78115000  0.74393000  1.0
  H  H32  1  0.24780000  0.62341000  0.75221000  1.0
  H  H33  1  0.75210000  0.87659000  0.25222000  1.0
  H  H34  1  0.75216000  0.37660000  0.24778000  1.0
  H  H35  1  0.24781000  0.12342000  0.74779000  1.0
  H  H36  1  0.94515000  0.58026000  0.69485000  1.0
  H  H37  1  0.05474000  0.91974000  0.19486000  1.0
  H  H38  1  0.05482000  0.41975000  0.30514000  1.0
  H  H39  1  0.94519000  0.08027000  0.80514000  1.0
  H  H40  1  0.35259000  0.54490000  0.69598000  1.0
  H  H41  1  0.64732000  0.95510000  0.19600000  1.0
  H  H42  1  0.64740000  0.45512000  0.30400000  1.0
  H  H43  1  0.35261000  0.04491000  0.80402000  1.0
  C  C44  1  0.86348000  0.38883000  0.87599000  1.0
  C  C45  1  0.13653000  0.11117000  0.37601000  1.0
  C  C46  1  0.13660000  0.61117000  0.12399000  1.0
  C  C47  1  0.86344000  0.88883000  0.62401000  1.0
  C  C48  1  0.82900000  0.36500000  0.80948000  1.0
  C  C49  1  0.17099000  0.13500000  0.30950000  1.0
  C  C50  1  0.17106000  0.63500000  0.19049000  1.0
  C  C51  1  0.82898000  0.86501000  0.69052000  1.0
  C  C52  1  0.92317000  0.42340000  0.76084000  1.0
  C  C53  1  0.07683000  0.07660000  0.26087000  1.0
  C  C54  1  0.07686000  0.57661000  0.23913000  1.0
  C  C55  1  0.92316000  0.92341000  0.73916000  1.0
  C  C56  1  0.04506000  0.50260000  0.77871000  1.0
  C  C57  1  0.95490000  0.99738000  0.27873000  1.0
  C  C58  1  0.95498000  0.49739000  0.22127000  1.0
  C  C59  1  0.04505000  0.00261000  0.72129000  1.0
  C  C60  1  0.06413000  0.52123000  0.84646000  1.0
  C  C61  1  0.93583000  0.97877000  0.34648000  1.0
  C  C62  1  0.93591000  0.47877000  0.15352000  1.0
  C  C63  1  0.06413000  0.02123000  0.65354000  1.0
  C  C64  1  0.69538000  0.27972000  0.79241000  1.0
  C  C65  1  0.30462000  0.22027000  0.29243000  1.0
  C  C66  1  0.30466000  0.72027000  0.20757000  1.0
  C  C67  1  0.69538000  0.77973000  0.70760000  1.0
  C  C68  1  0.15315000  0.56641000  0.72808000  1.0
  C  C69  1  0.84676000  0.93359000  0.22810000  1.0
  C  C70  1  0.84684000  0.43360000  0.27190000  1.0
  C  C71  1  0.15317000  0.06642000  0.77191000  1.0
  N  N72  1  0.97605000  0.46510000  0.89322000  1.0
  N  N73  1  0.02396000  0.03491000  0.39323000  1.0
  N  N74  1  0.02402000  0.53490000  0.10677000  1.0
  N  N75  1  0.97602000  0.96509000  0.60679000  1.0
  Cl  Cl76  1  0.53631000  0.61820000  0.97199000  1.0
  Cl  Cl77  1  0.46368000  0.88180000  0.47201000  1.0
  Cl  Cl78  1  0.46372000  0.38180000  0.02799000  1.0
  Cl  Cl79  1  0.53628000  0.11819000  0.52801000  1.0
  Cl  Cl80  1  0.91384000  0.82246000  0.04278000  1.0
  Cl  Cl81  1  0.08625000  0.67754000  0.54280000  1.0
  Cl  Cl82  1  0.08623000  0.17754000  0.95720000  1.0
  Cl  Cl83  1  0.91380000  0.32245000  0.45722000  1.0
  Cl  Cl84  1  0.13700000  0.77311000  0.86338000  1.0
  Cl  Cl85  1  0.86299000  0.72689000  0.36339000  1.0
  Cl  Cl86  1  0.86303000  0.22689000  0.13661000  1.0
  Cl  Cl87  1  0.13700000  0.27310000  0.63662000  1.0
  Cl  Cl88  1  0.60837000  0.97173000  0.91243000  1.0
  Cl  Cl89  1  0.39160000  0.52827000  0.41244000  1.0
  Cl  Cl90  1  0.39161000  0.02827000  0.08757000  1.0
  Cl  Cl91  1  0.60838000  0.47173000  0.58757000  1.0
