# generated using pymatgen
data_Zn2H65C78N4O20F11
_symmetry_space_group_name_H-M   'P 1'
_cell_length_a   9.77268000
_cell_length_b   10.87710000
_cell_length_c   27.74250000
_cell_angle_alpha   90.13830000
_cell_angle_beta   90.10520000
_cell_angle_gamma   94.02250000
_symmetry_Int_Tables_number   1
_chemical_formula_structural   Zn2H65C78N4O20F11
_chemical_formula_sum   'Zn2 H65 C78 N4 O20 F11'
_cell_volume   2941.70475100
_cell_formula_units_Z   1
loop_
 _symmetry_equiv_pos_site_id
 _symmetry_equiv_pos_as_xyz
  1  'x, y, z'
loop_
 _atom_site_type_symbol
 _atom_site_label
 _atom_site_symmetry_multiplicity
 _atom_site_fract_x
 _atom_site_fract_y
 _atom_site_fract_z
 _atom_site_occupancy
  Zn  Zn0  1  0.35831000  0.50027000  0.50374000  1.0
  Zn  Zn1  1  0.65140000  0.52105000  0.50315000  1.0
  H  H2  1  0.13352000  0.52980000  0.12816000  1.0
  H  H3  1  0.53308000  0.89734000  0.64800000  1.0
  H  H4  1  0.46563000  0.83724000  0.70346000  1.0
  H  H5  1  0.34299000  0.77698000  0.60328000  1.0
  H  H6  1  0.27247000  0.72487000  0.65889000  1.0
  H  H7  1  0.24466000  0.94901000  0.68326000  1.0
  H  H8  1  0.15277000  0.90792000  0.62962000  1.0
  H  H9  1  0.30945000  0.99668000  0.62591000  1.0
  H  H10  1  0.45060000  0.90069000  0.42185000  1.0
  H  H11  1  0.35721000  0.02885000  0.40485000  1.0
  H  H12  1  0.31667000  0.76826000  0.36240000  1.0
  H  H13  1  0.26139000  0.67033000  0.88960000  1.0
  H  H14  1  0.22835000  0.89657000  0.34365000  1.0
  H  H15  1  0.45219000  0.00749000  0.31781000  1.0
  H  H16  1  0.42779000  0.86282000  0.28828000  1.0
  H  H17  1  0.54266000  0.88061000  0.33767000  1.0
  H  H18  1  0.16037000  0.27590000  0.53017000  1.0
  H  H19  1  0.26195000  0.21454000  0.57619000  1.0
  H  H20  1  0.94829000  0.21652000  0.57307000  1.0
  H  H21  1  0.03455000  0.12200000  0.61297000  1.0
  H  H22  1  0.15923000  0.30548000  0.65101000  1.0
  H  H23  1  0.98028000  0.32770000  0.65130000  1.0
  H  H24  1  0.73029000  0.13646000  0.53547000  1.0
  H  H25  1  0.09081000  0.40493000  0.60873000  1.0
  H  H26  1  0.83307000  0.78004000  0.61195000  1.0
  H  H27  1  0.01035000  0.77513000  0.59694000  1.0
  H  H28  1  0.84217000  0.56958000  0.65090000  1.0
  H  H29  1  0.02360000  0.58493000  0.64604000  1.0
  H  H30  1  0.02415000  0.78583000  0.69483000  1.0
  H  H31  1  0.95619000  0.65562000  0.72738000  1.0
  H  H32  1  0.84349000  0.75903000  0.70165000  1.0
  H  H33  1  0.13567000  0.13340000  0.37588000  1.0
  H  H34  1  0.99776000  0.22373000  0.36024000  1.0
  H  H35  1  0.22277000  0.12612000  0.46552000  1.0
  H  H36  1  0.98933000  0.03319000  0.44193000  1.0
  H  H37  1  0.85103000  0.11769000  0.42352000  1.0
  H  H38  1  0.85491000  0.01467000  0.34083000  1.0
  H  H39  1  0.82900000  0.90506000  0.38790000  1.0
  H  H40  1  0.99268000  0.92886000  0.36080000  1.0
  H  H41  1  0.51194000  0.11694000  0.62307000  1.0
  H  H42  1  0.48831000  0.12986000  0.68655000  1.0
  H  H43  1  0.72236000  0.26115000  0.62830000  1.0
  H  H44  1  0.70099000  0.27337000  0.69155000  1.0
  H  H45  1  0.71867000  0.04141000  0.69914000  1.0
  H  H46  1  0.12144000  0.42314000  0.38780000  1.0
  H  H47  1  0.86966000  0.11838000  0.67564000  1.0
  H  H48  1  0.75415000  0.03431000  0.63643000  1.0
  H  H49  1  0.61375000  0.13698000  0.81663000  1.0
  H  H50  1  0.61503000  0.03332000  0.86695000  1.0
  H  H51  1  0.85707000  0.11648000  0.80169000  1.0
  H  H52  1  0.87490000  0.03382000  0.85591000  1.0
  H  H53  1  0.72295000  0.85605000  0.82368000  1.0
  H  H54  1  0.86111000  0.89087000  0.78349000  1.0
  H  H55  1  0.69562000  0.93781000  0.76981000  1.0
  H  H56  1  0.49622000  0.03857000  0.99003000  1.0
  H  H57  1  0.86840000  0.46274000  0.38620000  1.0
  H  H58  1  0.51753000  0.96750000  0.04736000  1.0
  H  H59  1  0.72855000  0.97518000  0.96507000  1.0
  H  H60  1  0.74661000  0.90244000  0.02136000  1.0
  H  H61  1  0.53718000  0.75738000  0.00238000  1.0
  H  H62  1  0.66765000  0.74708000  0.95846000  1.0
  H  H63  1  0.52204000  0.82997000  0.94557000  1.0
  H  H64  1  0.83278000  0.32277000  0.41925000  1.0
  H  H65  1  0.64349000  0.14905000  0.12471000  1.0
  H  H66  1  0.67261000  0.18666000  0.96491000  1.0
  C  C67  1  0.52136000  0.27796000  0.51113000  1.0
  C  C68  1  0.51371000  0.31116000  0.97621000  1.0
  C  C69  1  0.34669000  0.47399000  0.97991000  1.0
  C  C70  1  0.49126000  0.48258000  0.41012000  1.0
  C  C71  1  0.43585000  0.40093000  0.95276000  1.0
  C  C72  1  0.60614000  0.25007000  0.94824000  1.0
  C  C73  1  0.62371000  0.26867000  0.89853000  1.0
  C  C74  1  0.54877000  0.35588000  0.87453000  1.0
  C  C75  1  0.45580000  0.42266000  0.90224000  1.0
  C  C76  1  0.38419000  0.51627000  0.87978000  1.0
  C  C77  1  0.38831000  0.53605000  0.82723000  1.0
  C  C78  1  0.39831000  0.31224000  0.29288000  1.0
  C  C79  1  0.57326000  0.38682000  0.82339000  1.0
  C  C80  1  0.46052000  0.37844000  0.72239000  1.0
  C  C81  1  0.46984000  0.38361000  0.67228000  1.0
  C  C82  1  0.51514000  0.74317000  0.50619000  1.0
  C  C83  1  0.52113000  0.60704000  0.67858000  1.0
  C  C84  1  0.52243000  0.59532000  0.72889000  1.0
  C  C85  1  0.48947000  0.48242000  0.75123000  1.0
  C  C86  1  0.50340000  0.29422000  0.02848000  1.0
  C  C87  1  0.41445000  0.36896000  0.05514000  1.0
  C  C88  1  0.32436000  0.44710000  0.03067000  1.0
  C  C89  1  0.44723000  0.39642000  0.25807000  1.0
  C  C90  1  0.57583000  0.20829000  0.05516000  1.0
  C  C91  1  0.21385000  0.48693000  0.10835000  1.0
  C  C92  1  0.29698000  0.57586000  0.95629000  1.0
  C  C93  1  0.30893000  0.59427000  0.90697000  1.0
  C  C94  1  0.49245000  0.50669000  0.59666000  1.0
  C  C95  1  0.21665000  0.48962000  0.05819000  1.0
  C  C96  1  0.39381000  0.06736000  0.51179000  1.0
  C  C97  1  0.51430000  0.14225000  0.51877000  1.0
  C  C98  1  0.63399000  0.08250000  0.52863000  1.0
  C  C99  1  0.63276000  0.95439000  0.52763000  1.0
  C  C100  1  0.41060000  0.36319000  0.10655000  1.0
  C  C101  1  0.51586000  0.87776000  0.51534000  1.0
  C  C102  1  0.39694000  0.93990000  0.50901000  1.0
  C  C103  1  0.25279000  0.92490000  0.48694000  1.0
  C  C104  1  0.24304000  0.06856000  0.49694000  1.0
  C  C105  1  0.92668000  0.47714000  0.46267000  1.0
  C  C106  1  0.51297000  0.29450000  0.18451000  1.0
  C  C107  1  0.93823000  0.59075000  0.53198000  1.0
  C  C108  1  0.08215000  0.57507000  0.53224000  1.0
  C  C109  1  0.06524000  0.46228000  0.46402000  1.0
  C  C110  1  0.06122000  0.38339000  0.41836000  1.0
  C  C111  1  0.50076000  0.28920000  0.13143000  1.0
  C  C112  1  0.90110000  0.40679000  0.41645000  1.0
  C  C113  1  0.32118000  0.43762000  0.18572000  1.0
  C  C114  1  0.51625000  0.50670000  0.27311000  1.0
  C  C115  1  0.53381000  0.53296000  0.32196000  1.0
  C  C116  1  0.41670000  0.33945000  0.34163000  1.0
  C  C117  1  0.47306000  0.81937000  0.66450000  1.0
  C  C118  1  0.33172000  0.80222000  0.64139000  1.0
  C  C119  1  0.25573000  0.92011000  0.64548000  1.0
  C  C120  1  0.35172000  0.92731000  0.40738000  1.0
  C  C121  1  0.32660000  0.86910000  0.35813000  1.0
  C  C122  1  0.57885000  0.21069000  0.10565000  1.0
  C  C123  1  0.44377000  0.90727000  0.32361000  1.0
  C  C124  1  0.16211000  0.20252000  0.55742000  1.0
  C  C125  1  0.04507000  0.20951000  0.59302000  1.0
  C  C126  1  0.06956000  0.31761000  0.62799000  1.0
  C  C127  1  0.91634000  0.71919000  0.60603000  1.0
  C  C128  1  0.93163000  0.63683000  0.64963000  1.0
  C  C129  1  0.93937000  0.71386000  0.69595000  1.0
  C  C130  1  0.04403000  0.17439000  0.39021000  1.0
  C  C131  1  0.94277000  0.07480000  0.41033000  1.0
  C  C132  1  0.90253000  0.97563000  0.37281000  1.0
  C  C133  1  0.31543000  0.42965000  0.13267000  1.0
  C  C134  1  0.53080000  0.17762000  0.65439000  1.0
  C  C135  1  0.68363000  0.21096000  0.66048000  1.0
  C  C136  1  0.76060000  0.09489000  0.66829000  1.0
  C  C137  1  0.67725000  0.10263000  0.84574000  1.0
  C  C138  1  0.80433000  0.04845000  0.82579000  1.0
  C  C139  1  0.76905000  0.92693000  0.79929000  1.0
  C  C140  1  0.57282000  0.01161000  0.01660000  1.0
  C  C141  1  0.67090000  0.92587000  0.99406000  1.0
  C  C142  1  0.59514000  0.80875000  0.97406000  1.0
  C  C143  1  0.48235000  0.45066000  0.35694000  1.0
  C  C144  1  0.49493000  0.49987000  0.65081000  1.0
  N  N145  1  0.42580000  0.37416000  0.20790000  1.0
  N  N146  1  0.48426000  0.47002000  0.80226000  1.0
  N  N147  1  0.86037000  0.53715000  0.49627000  1.0
  N  N148  1  0.14618000  0.51029000  0.49967000  1.0
  O  O149  1  0.41014000  0.32301000  0.49854000  1.0
  O  O150  1  0.37654000  0.48049000  0.57725000  1.0
  O  O151  1  0.60492000  0.53680000  0.57590000  1.0
  O  O152  1  0.59511000  0.23797000  0.20772000  1.0
  O  O153  1  0.55702000  0.71629000  0.65592000  1.0
  O  O154  1  0.24194000  0.88458000  0.43920000  1.0
  O  O155  1  0.14778000  0.08423000  0.53428000  1.0
  O  O156  1  0.86693000  0.65043000  0.56342000  1.0
  O  O157  1  0.08900000  0.26062000  0.42779000  1.0
  O  O158  1  0.45123000  0.28214000  0.64317000  1.0
  O  O159  1  0.72197000  0.20284000  0.87808000  1.0
  O  O160  1  0.66314000  0.34518000  0.79853000  1.0
  O  O161  1  0.65226000  0.12111000  0.03400000  1.0
  O  O162  1  0.24437000  0.49758000  0.20991000  1.0
  O  O163  1  0.31341000  0.60491000  0.80628000  1.0
  O  O164  1  0.63828000  0.33605000  0.51584000  1.0
  O  O165  1  0.37918000  0.50921000  0.42890000  1.0
  O  O166  1  0.60733000  0.47859000  0.42975000  1.0
  O  O167  1  0.40016000  0.68349000  0.51250000  1.0
  O  O168  1  0.62559000  0.70027000  0.49206000  1.0
  F  F169  1  0.36893000  0.25559000  0.37465000  1.0
  F  F170  1  0.42298000  0.26930000  0.74440000  1.0
  F  F171  1  0.59985000  0.64135000  0.33528000  1.0
  F  F172  1  0.56480000  0.58900000  0.23977000  1.0
  F  F173  1  0.24024000  0.66627000  0.98164000  1.0
  F  F174  1  0.55950000  0.69519000  0.75680000  1.0
  F  F175  1  0.10605000  0.53353000  0.03623000  1.0
  F  F176  1  0.75259000  0.90410000  0.53802000  1.0
  F  F177  1  0.33107000  0.20500000  0.27921000  1.0
  F  F178  1  0.15482000  0.85077000  0.51135000  1.0
  F  F179  1  0.15712000  0.62492000  0.56851000  1.0
