# generated using pymatgen
data_Zn2H32C20O13
_symmetry_space_group_name_H-M   'P 1'
_cell_length_a   10.28010000
_cell_length_b   12.42370000
_cell_length_c   19.01150000
_cell_angle_alpha   89.99990000
_cell_angle_beta   90.00000000
_cell_angle_gamma   89.99990000
_symmetry_Int_Tables_number   1
_chemical_formula_structural   Zn2H32C20O13
_chemical_formula_sum   'Zn8 H128 C80 O52'
_cell_volume   2428.08943312
_cell_formula_units_Z   4
loop_
 _symmetry_equiv_pos_site_id
 _symmetry_equiv_pos_as_xyz
  1  'x, y, z'
loop_
 _atom_site_type_symbol
 _atom_site_label
 _atom_site_symmetry_multiplicity
 _atom_site_fract_x
 _atom_site_fract_y
 _atom_site_fract_z
 _atom_site_occupancy
  Zn  Zn0  1  0.68261000  0.22611000  0.44891000  1.0
  Zn  Zn1  1  0.81738000  0.77388000  0.94891000  1.0
  Zn  Zn2  1  0.31739000  0.72611000  0.05109000  1.0
  Zn  Zn3  1  0.18261000  0.27388000  0.55109000  1.0
  Zn  Zn4  1  0.49315000  0.38098000  0.55396000  1.0
  Zn  Zn5  1  0.00685000  0.61902000  0.05396000  1.0
  Zn  Zn6  1  0.50685000  0.88098000  0.94604000  1.0
  Zn  Zn7  1  0.99314000  0.11902000  0.44604000  1.0
  H  H8  1  0.11209000  0.34524000  0.75041000  1.0
  H  H9  1  0.38791000  0.65476000  0.25041000  1.0
  H  H10  1  0.88792000  0.84524000  0.74959000  1.0
  H  H11  1  0.61208000  0.15476000  0.24959000  1.0
  H  H12  1  0.05223000  0.41760000  0.86972000  1.0
  H  H13  1  0.44777000  0.58240000  0.36972000  1.0
  H  H14  1  0.94777000  0.91760000  0.63028000  1.0
  H  H15  1  0.55223000  0.08240000  0.13028000  1.0
  H  H16  1  0.43324000  0.55867000  0.88823000  1.0
  H  H17  1  0.06676000  0.44133000  0.38823000  1.0
  H  H18  1  0.56676000  0.05867000  0.61177000  1.0
  H  H19  1  0.93324000  0.94133000  0.11177000  1.0
  H  H20  1  0.49037000  0.48830000  0.76821000  1.0
  H  H21  1  0.00963000  0.51170000  0.26821000  1.0
  H  H22  1  0.50964000  0.98830000  0.73179000  1.0
  H  H23  1  0.99036000  0.01170000  0.23179000  1.0
  H  H24  1  0.77116000  0.43408000  0.57227000  1.0
  H  H25  1  0.72884000  0.56592000  0.07227000  1.0
  H  H26  1  0.22884000  0.93408000  0.92773000  1.0
  H  H27  1  0.27116000  0.06592000  0.42773000  1.0
  H  H28  1  0.85950000  0.33886000  0.67751000  1.0
  H  H29  1  0.64050000  0.66114000  0.17751000  1.0
  H  H30  1  0.14050000  0.83886000  0.82249000  1.0
  H  H31  1  0.35950000  0.16114000  0.32249000  1.0
  H  H32  1  0.68517000  0.33825000  0.67801000  1.0
  H  H33  1  0.81483000  0.66175000  0.17801000  1.0
  H  H34  1  0.31483000  0.83825000  0.82199000  1.0
  H  H35  1  0.18517000  0.16175000  0.32198000  1.0
  H  H36  1  0.77233000  0.22027000  0.65392000  1.0
  H  H37  1  0.72768000  0.77973000  0.15392000  1.0
  H  H38  1  0.22767000  0.72027000  0.84608000  1.0
  H  H39  1  0.27232000  0.27972000  0.34608000  1.0
  H  H40  1  0.80695000  0.49796000  0.44613000  1.0
  H  H41  1  0.69305000  0.50204000  0.94613000  1.0
  H  H42  1  0.19305000  0.99796000  0.05387000  1.0
  H  H43  1  0.30695000  0.00204000  0.55387000  1.0
  H  H44  1  0.83315000  0.57884000  0.37030000  1.0
  H  H45  1  0.66685000  0.42116000  0.87030000  1.0
  H  H46  1  0.16685000  0.07884000  0.12970000  1.0
  H  H47  1  0.33315000  0.92116000  0.62970000  1.0
  H  H48  1  0.81391000  0.37950000  0.34729000  1.0
  H  H49  1  0.68609000  0.62050000  0.84729000  1.0
  H  H50  1  0.18609000  0.87950000  0.15271000  1.0
  H  H51  1  0.31391000  0.12050000  0.65271000  1.0
  H  H52  1  0.75977000  0.50647000  0.24885000  1.0
  H  H53  1  0.74023000  0.49353000  0.74885000  1.0
  H  H54  1  0.24023000  0.00647000  0.25115000  1.0
  H  H55  1  0.25977000  0.99353000  0.75115000  1.0
  H  H56  1  0.66026000  0.38881000  0.24664000  1.0
  H  H57  1  0.83974000  0.61119000  0.74664000  1.0
  H  H58  1  0.33974000  0.88881000  0.25336000  1.0
  H  H59  1  0.16026000  0.11119000  0.75336000  1.0
  H  H60  1  0.59594000  0.51272000  0.27843000  1.0
  H  H61  1  0.90406000  0.48728000  0.77843000  1.0
  H  H62  1  0.40406000  0.01272000  0.22157000  1.0
  H  H63  1  0.09594000  0.98728000  0.72157000  1.0
  H  H64  1  0.55740000  0.41035000  0.40243000  1.0
  H  H65  1  0.94260000  0.58965000  0.90243000  1.0
  H  H66  1  0.44260000  0.91035000  0.09757000  1.0
  H  H67  1  0.05740000  0.08965000  0.59757000  1.0
  H  H68  1  0.67015000  0.66625000  0.41646000  1.0
  H  H69  1  0.82985000  0.33375000  0.91646000  1.0
  H  H70  1  0.32985000  0.16625000  0.08354000  1.0
  H  H71  1  0.17015000  0.83375000  0.58354000  1.0
  H  H72  1  0.72331000  0.66555000  0.54123000  1.0
  H  H73  1  0.77669000  0.33445000  0.04123000  1.0
  H  H74  1  0.27669000  0.16555000  0.95876000  1.0
  H  H75  1  0.22330000  0.83445000  0.45876000  1.0
  H  H76  1  0.71820000  0.59344000  0.62226000  1.0
  H  H77  1  0.78181000  0.40657000  0.12226000  1.0
  H  H78  1  0.28181000  0.09343000  0.87774000  1.0
  H  H79  1  0.21819000  0.90656000  0.37774000  1.0
  H  H80  1  0.63782000  0.78790000  0.62277000  1.0
  H  H81  1  0.86218000  0.21210000  0.12277000  1.0
  H  H82  1  0.36218000  0.28790000  0.87723000  1.0
  H  H83  1  0.13782000  0.71210000  0.37723000  1.0
  H  H84  1  0.58865000  0.66295000  0.72050000  1.0
  H  H85  1  0.91135000  0.33705000  0.22050000  1.0
  H  H86  1  0.41135000  0.16295000  0.77950000  1.0
  H  H87  1  0.08865000  0.83706000  0.27950000  1.0
  H  H88  1  0.45425000  0.74951000  0.70504000  1.0
  H  H89  1  0.04575000  0.25049000  0.20504000  1.0
  H  H90  1  0.54575000  0.24951000  0.79496000  1.0
  H  H91  1  0.95425000  0.75049000  0.29496000  1.0
  H  H92  1  0.45049000  0.61294000  0.67472000  1.0
  H  H93  1  0.04952000  0.38706000  0.17473000  1.0
  H  H94  1  0.54952000  0.11294000  0.82528000  1.0
  H  H95  1  0.95048000  0.88706000  0.32527000  1.0
  H  H96  1  0.49892000  0.81298000  0.53617000  1.0
  H  H97  1  0.00108000  0.18703000  0.03617000  1.0
  H  H98  1  0.50108000  0.31298000  0.96383000  1.0
  H  H99  1  0.99891000  0.68702000  0.46383000  1.0
  H  H100  1  0.59063000  0.56018000  0.49533000  1.0
  H  H101  1  0.90937000  0.43982000  0.99533000  1.0
  H  H102  1  0.40937000  0.06018000  0.00467000  1.0
  H  H103  1  0.09063000  0.93982000  0.50467000  1.0
  H  H104  1  0.48389000  0.95877000  0.37795000  1.0
  H  H105  1  0.01611000  0.04123000  0.87795000  1.0
  H  H106  1  0.51611000  0.45877000  0.12205000  1.0
  H  H107  1  0.98389000  0.54124000  0.62205000  1.0
  H  H108  1  0.46158000  0.82119000  0.40286000  1.0
  H  H109  1  0.03842000  0.17881000  0.90286000  1.0
  H  H110  1  0.53842000  0.32119000  0.09714000  1.0
  H  H111  1  0.96158000  0.67881000  0.59714000  1.0
  H  H112  1  0.72093000  0.94063000  0.38891000  1.0
  H  H113  1  0.77907000  0.05937000  0.88891000  1.0
  H  H114  1  0.27907000  0.44063000  0.11109000  1.0
  H  H115  1  0.22093000  0.55937000  0.61109000  1.0
  H  H116  1  0.61133000  0.89552000  0.27379000  1.0
  H  H117  1  0.88867000  0.10448000  0.77379000  1.0
  H  H118  1  0.38867000  0.39552000  0.22621000  1.0
  H  H119  1  0.11133000  0.60448000  0.72621000  1.0
  H  H120  1  0.75078000  0.81405000  0.28635000  1.0
  H  H121  1  0.74922000  0.18595000  0.78635000  1.0
  H  H122  1  0.24922000  0.31405000  0.21365000  1.0
  H  H123  1  0.25078000  0.68595000  0.71365000  1.0
  H  H124  1  0.59355000  0.75946000  0.30183000  1.0
  H  H125  1  0.90645000  0.24054000  0.80183000  1.0
  H  H126  1  0.40645000  0.25946000  0.19817000  1.0
  H  H127  1  0.09355000  0.74054000  0.69817000  1.0
  H  H128  1  0.81314000  0.78414000  0.42615000  1.0
  H  H129  1  0.68686000  0.21586000  0.92615000  1.0
  H  H130  1  0.18686000  0.28414000  0.07385000  1.0
  H  H131  1  0.31314000  0.71586000  0.57385000  1.0
  H  H132  1  0.58232000  0.97648000  0.49285000  1.0
  H  H133  1  0.91768000  0.02351000  0.99285000  1.0
  H  H134  1  0.41768000  0.47649000  0.00715000  1.0
  H  H135  1  0.08232000  0.52351000  0.50715000  1.0
  C  C136  1  0.32997000  0.37992000  0.67803000  1.0
  C  C137  1  0.17004000  0.62007000  0.17803000  1.0
  C  C138  1  0.67004000  0.87993000  0.82197000  1.0
  C  C139  1  0.82995000  0.12007000  0.32197000  1.0
  C  C140  1  0.30374000  0.41402000  0.75236000  1.0
  C  C141  1  0.19626000  0.58597000  0.25236000  1.0
  C  C142  1  0.69626000  0.91403000  0.74765000  1.0
  C  C143  1  0.80374000  0.08597000  0.24764000  1.0
  C  C144  1  0.18128000  0.39171000  0.78151000  1.0
  C  C145  1  0.31872000  0.60829000  0.28151000  1.0
  C  C146  1  0.81872000  0.89171000  0.71850000  1.0
  C  C147  1  0.68127000  0.10829000  0.21850000  1.0
  C  C148  1  0.14851000  0.43163000  0.84743000  1.0
  C  C149  1  0.35149000  0.56837000  0.34743000  1.0
  C  C150  1  0.85149000  0.93163000  0.65257000  1.0
  C  C151  1  0.64851000  0.06838000  0.15257000  1.0
  C  C152  1  0.23913000  0.49276000  0.88545000  1.0
  C  C153  1  0.26087000  0.50724000  0.38545000  1.0
  C  C154  1  0.76087000  0.99276000  0.61455000  1.0
  C  C155  1  0.73913000  0.00724000  0.11455000  1.0
  C  C156  1  0.36381000  0.51114000  0.85795000  1.0
  C  C157  1  0.13619000  0.48886000  0.35795000  1.0
  C  C158  1  0.63619000  0.01114000  0.64205000  1.0
  C  C159  1  0.86381000  0.98886000  0.14205000  1.0
  C  C160  1  0.39548000  0.47231000  0.79139000  1.0
  C  C161  1  0.10452000  0.52768000  0.29139000  1.0
  C  C162  1  0.60453000  0.97232000  0.70862000  1.0
  C  C163  1  0.89547000  0.02768000  0.20862000  1.0
  C  C164  1  0.20056000  0.54159000  0.95403000  1.0
  C  C165  1  0.29944000  0.45841000  0.45403000  1.0
  C  C166  1  0.79945000  0.04159000  0.54598000  1.0
  C  C167  1  0.70055000  0.95841000  0.04597000  1.0
  C  C168  1  0.89254000  0.30984000  0.53547000  1.0
  C  C169  1  0.60746000  0.69016000  0.03547000  1.0
  C  C170  1  0.10746000  0.80983000  0.96453000  1.0
  C  C171  1  0.39254000  0.19016000  0.46453000  1.0
  C  C172  1  0.76894000  0.34498000  0.57400000  1.0
  C  C173  1  0.73106000  0.65502000  0.07400000  1.0
  C  C174  1  0.23106000  0.84498000  0.92600000  1.0
  C  C175  1  0.26894000  0.15502000  0.42600000  1.0
  C  C176  1  0.77239000  0.30850000  0.65087000  1.0
  C  C177  1  0.72761000  0.69149000  0.15087000  1.0
  C  C178  1  0.22761000  0.80850000  0.84913000  1.0
  C  C179  1  0.27239000  0.19149000  0.34913000  1.0
  C  C180  1  0.76168000  0.52696000  0.39709000  1.0
  C  C181  1  0.73832000  0.47304000  0.89709000  1.0
  C  C182  1  0.23832000  0.02696000  0.10291000  1.0
  C  C183  1  0.26168000  0.97304000  0.60291000  1.0
  C  C184  1  0.72723000  0.43144000  0.35050000  1.0
  C  C185  1  0.77277000  0.56856000  0.85050000  1.0
  C  C186  1  0.27277000  0.93144000  0.14950000  1.0
  C  C187  1  0.22723000  0.06856000  0.64950000  1.0
  C  C188  1  0.68317000  0.46185000  0.27667000  1.0
  C  C189  1  0.81683000  0.53815000  0.77667000  1.0
  C  C190  1  0.31683000  0.96184000  0.22333000  1.0
  C  C191  1  0.18317000  0.03816000  0.72333000  1.0
  C  C192  1  0.65792000  0.62980000  0.58061000  1.0
  C  C193  1  0.84208000  0.37020000  0.08061000  1.0
  C  C194  1  0.34208000  0.12980000  0.91939000  1.0
  C  C195  1  0.15792000  0.87020000  0.41939000  1.0
  C  C196  1  0.57315000  0.71857000  0.61324000  1.0
  C  C197  1  0.92686000  0.28143000  0.11324000  1.0
  C  C198  1  0.42686000  0.21857000  0.88676000  1.0
  C  C199  1  0.07314000  0.78143000  0.38676000  1.0
  C  C200  1  0.51240000  0.68397000  0.68242000  1.0
  C  C201  1  0.98760000  0.31603000  0.18242000  1.0
  C  C202  1  0.48760000  0.18397000  0.81758000  1.0
  C  C203  1  0.01240000  0.81603000  0.31758000  1.0
  C  C204  1  0.52369000  0.89259000  0.41021000  1.0
  C  C205  1  0.97631000  0.10741000  0.91021000  1.0
  C  C206  1  0.47631000  0.39258000  0.08978000  1.0
  C  C207  1  0.02369000  0.60742000  0.58978000  1.0
  C  C208  1  0.66060000  0.86772000  0.38361000  1.0
  C  C209  1  0.83940000  0.13228000  0.88361000  1.0
  C  C210  1  0.33940000  0.36772000  0.11639000  1.0
  C  C211  1  0.16060000  0.63228000  0.61639000  1.0
  C  C212  1  0.65379000  0.83219000  0.30693000  1.0
  C  C213  1  0.84621000  0.16781000  0.80693000  1.0
  C  C214  1  0.34621000  0.33219000  0.19307000  1.0
  C  C215  1  0.15379000  0.66781000  0.69307000  1.0
  O  O216  1  0.44078000  0.40583000  0.65178000  1.0
  O  O217  1  0.05922000  0.59417000  0.15178000  1.0
  O  O218  1  0.55923000  0.90584000  0.84822000  1.0
  O  O219  1  0.94077000  0.09417000  0.34822000  1.0
  O  O220  1  0.23924000  0.33089000  0.64700000  1.0
  O  O221  1  0.26076000  0.66911000  0.14700000  1.0
  O  O222  1  0.76076000  0.83088000  0.85300000  1.0
  O  O223  1  0.73923000  0.16912000  0.35300000  1.0
  O  O224  1  0.28689000  0.56222000  0.99963000  1.0
  O  O225  1  0.21311000  0.43777000  0.49963000  1.0
  O  O226  1  0.71311000  0.06222000  0.50037000  1.0
  O  O227  1  0.78688000  0.93778000  0.00037000  1.0
  O  O228  1  0.07897000  0.56207000  0.96216000  1.0
  O  O229  1  0.42103000  0.43793000  0.46216000  1.0
  O  O230  1  0.92103000  0.06207000  0.53784000  1.0
  O  O231  1  0.57896000  0.93793000  0.03784000  1.0
  O  O232  1  0.88027000  0.26412000  0.47493000  1.0
  O  O233  1  0.61973000  0.73588000  0.97493000  1.0
  O  O234  1  0.11973000  0.76412000  0.02507000  1.0
  O  O235  1  0.38027000  0.23587000  0.52507000  1.0
  O  O236  1  0.99851000  0.32879000  0.56623000  1.0
  O  O237  1  0.50149000  0.67121000  0.06623000  1.0
  O  O238  1  0.00148000  0.82879000  0.93378000  1.0
  O  O239  1  0.49851000  0.17121000  0.43377000  1.0
  O  O240  1  0.65642000  0.30589000  0.53997000  1.0
  O  O241  1  0.84358000  0.69411000  0.03997000  1.0
  O  O242  1  0.34358000  0.80589000  0.96003000  1.0
  O  O243  1  0.15642000  0.19410000  0.46003000  1.0
  O  O244  1  0.62950000  0.36569000  0.38409000  1.0
  O  O245  1  0.87050000  0.63431000  0.88409000  1.0
  O  O246  1  0.37049000  0.86568000  0.11591000  1.0
  O  O247  1  0.12951000  0.13432000  0.61591000  1.0
  O  O248  1  0.64614000  0.58713000  0.41301000  1.0
  O  O249  1  0.85386000  0.41287000  0.91301000  1.0
  O  O250  1  0.35386000  0.08713000  0.08700000  1.0
  O  O251  1  0.14614000  0.91287000  0.58700000  1.0
  O  O252  1  0.47130000  0.75058000  0.56608000  1.0
  O  O253  1  0.02870000  0.24942000  0.06608000  1.0
  O  O254  1  0.52870000  0.25058000  0.93392000  1.0
  O  O255  1  0.97130000  0.74942000  0.43392000  1.0
  O  O256  1  0.58307000  0.54711000  0.54714000  1.0
  O  O257  1  0.91693000  0.45289000  0.04714000  1.0
  O  O258  1  0.41693000  0.04711000  0.95286000  1.0
  O  O259  1  0.08307000  0.95289000  0.45286000  1.0
  O  O260  1  0.71562000  0.78554000  0.42813000  1.0
  O  O261  1  0.78438000  0.21446000  0.92813000  1.0
  O  O262  1  0.28438000  0.28554000  0.07186000  1.0
  O  O263  1  0.21562000  0.71446000  0.57186000  1.0
  O  O264  1  0.51628000  0.91960000  0.48311000  1.0
  O  O265  1  0.98372000  0.08040000  0.98311000  1.0
  O  O266  1  0.48372000  0.41960000  0.01689000  1.0
  O  O267  1  0.01628000  0.58040000  0.51689000  1.0
