# generated using pymatgen
data_P2H15Pb2C8NO6
_symmetry_space_group_name_H-M   'P 1'
_cell_length_a   6.93597000
_cell_length_b   7.05806000
_cell_length_c   14.56450000
_cell_angle_alpha   84.68350000
_cell_angle_beta   81.86640000
_cell_angle_gamma   89.49400000
_symmetry_Int_Tables_number   1
_chemical_formula_structural   P2H15Pb2C8NO6
_chemical_formula_sum   'P4 H30 Pb4 C16 N2 O12'
_cell_volume   702.78251876
_cell_formula_units_Z   2
loop_
 _symmetry_equiv_pos_site_id
 _symmetry_equiv_pos_as_xyz
  1  'x, y, z'
loop_
 _atom_site_type_symbol
 _atom_site_label
 _atom_site_symmetry_multiplicity
 _atom_site_fract_x
 _atom_site_fract_y
 _atom_site_fract_z
 _atom_site_occupancy
  P  P0  1  0.61655000  0.15447000  0.10477000  1.0
  P  P1  1  0.38348000  0.84553000  0.89523000  1.0
  P  P2  1  0.92190000  0.63452000  0.15272000  1.0
  P  P3  1  0.07808000  0.36547000  0.84727000  1.0
  H  H4  1  0.41567000  0.51760000  0.35035000  1.0
  H  H5  1  0.58435000  0.48236000  0.64965000  1.0
  H  H6  1  0.58341000  0.12434000  0.39912000  1.0
  H  H7  1  0.41660000  0.87561000  0.60089000  1.0
  H  H8  1  0.67138000  0.33961000  0.42987000  1.0
  H  H9  1  0.32863000  0.66034000  0.57015000  1.0
  H  H10  1  0.44315000  0.18012000  0.56131000  1.0
  H  H11  1  0.55682000  0.81988000  0.43870000  1.0
  H  H12  1  0.34735000  0.39931000  0.52140000  1.0
  H  H13  1  0.65266000  0.60072000  0.47859000  1.0
  H  H14  1  0.08760000  0.15587000  0.54532000  1.0
  H  H15  1  0.91236000  0.84422000  0.45467000  1.0
  H  H16  1  0.23170000  0.00732000  0.47198000  1.0
  H  H17  1  0.76820000  0.99269000  0.52804000  1.0
  H  H18  1  0.07229000  0.39951000  0.41275000  1.0
  H  H19  1  0.92781000  0.60056000  0.58721000  1.0
  H  H20  1  0.99596000  0.17825000  0.38254000  1.0
  H  H21  1  0.00403000  0.82184000  0.61745000  1.0
  H  H22  1  0.31948000  0.12731000  0.29182000  1.0
  H  H23  1  0.68054000  0.87266000  0.70819000  1.0
  H  H24  1  0.22006000  0.34702000  0.25297000  1.0
  H  H25  1  0.78000000  0.65292000  0.74701000  1.0
  H  H26  1  0.66207000  0.10826000  0.26442000  1.0
  H  H27  1  0.33782000  0.89174000  0.73558000  1.0
  H  H28  1  0.85176000  0.24791000  0.19989000  1.0
  H  H29  1  0.14824000  0.75198000  0.80015000  1.0
  H  H30  1  0.84865000  0.49638000  0.31194000  1.0
  H  H31  1  0.15136000  0.50368000  0.68807000  1.0
  H  H32  1  0.67951000  0.67503000  0.28403000  1.0
  H  H33  1  0.32049000  0.32501000  0.71594000  1.0
  Pb  Pb34  1  0.42014000  0.63524000  0.11669000  1.0
  Pb  Pb35  1  0.57979000  0.36469000  0.88334000  1.0
  Pb  Pb36  1  0.85476000  0.85837000  0.92660000  1.0
  Pb  Pb37  1  0.14522000  0.14162000  0.07339000  1.0
  C  C38  1  0.46073000  0.37389000  0.33156000  1.0
  C  C39  1  0.53930000  0.62607000  0.66844000  1.0
  C  C40  1  0.53959000  0.26906000  0.41559000  1.0
  C  C41  1  0.46042000  0.73091000  0.58442000  1.0
  C  C42  1  0.38439000  0.25516000  0.50168000  1.0
  C  C43  1  0.61560000  0.74484000  0.49832000  1.0
  C  C44  1  0.19953000  0.15722000  0.48360000  1.0
  C  C45  1  0.80045000  0.84281000  0.51639000  1.0
  C  C46  1  0.12311000  0.25521000  0.39783000  1.0
  C  C47  1  0.87691000  0.74483000  0.60216000  1.0
  C  C48  1  0.27977000  0.27089000  0.31201000  1.0
  C  C49  1  0.72026000  0.72907000  0.68800000  1.0
  C  C50  1  0.69302000  0.23103000  0.21233000  1.0
  C  C51  1  0.30698000  0.76896000  0.78767000  1.0
  C  C52  1  0.75617000  0.54829000  0.25905000  1.0
  C  C53  1  0.24384000  0.45172000  0.74095000  1.0
  N  N54  1  0.60746000  0.40768000  0.24681000  1.0
  N  N55  1  0.39257000  0.59231000  0.75320000  1.0
  O  O56  1  0.80297000  0.11085000  0.03890000  1.0
  O  O57  1  0.19703000  0.88922000  0.96107000  1.0
  O  O58  1  0.47687000  0.98564000  0.13269000  1.0
  O  O59  1  0.52319000  0.01432000  0.86732000  1.0
  O  O60  1  0.50473000  0.32101000  0.05736000  1.0
  O  O61  1  0.49517000  0.67896000  0.94268000  1.0
  O  O62  1  0.02203000  0.81181000  0.17637000  1.0
  O  O63  1  0.97804000  0.18820000  0.82363000  1.0
  O  O64  1  0.06989000  0.47444000  0.12981000  1.0
  O  O65  1  0.93011000  0.52558000  0.87018000  1.0
  O  O66  1  0.78412000  0.67013000  0.07750000  1.0
  O  O67  1  0.21589000  0.32992000  0.92250000  1.0
