# generated using pymatgen
data_MoH7C6SNO3
_symmetry_space_group_name_H-M   'P 1'
_cell_length_a   5.48387000
_cell_length_b   8.16395000
_cell_length_c   18.18760000
_cell_angle_alpha   89.99960000
_cell_angle_beta   96.91010000
_cell_angle_gamma   90.00000000
_symmetry_Int_Tables_number   1
_chemical_formula_structural   MoH7C6SNO3
_chemical_formula_sum   'Mo4 H28 C24 S4 N4 O12'
_cell_volume   808.34492800
_cell_formula_units_Z   4
loop_
 _symmetry_equiv_pos_site_id
 _symmetry_equiv_pos_as_xyz
  1  'x, y, z'
loop_
 _atom_site_type_symbol
 _atom_site_label
 _atom_site_symmetry_multiplicity
 _atom_site_fract_x
 _atom_site_fract_y
 _atom_site_fract_z
 _atom_site_occupancy
  Mo  Mo0  1  0.66980000  0.96130000  0.52960000  1.0
  Mo  Mo1  1  0.83022000  0.46130000  0.97041000  1.0
  Mo  Mo2  1  0.33019000  0.03869000  0.47041000  1.0
  Mo  Mo3  1  0.16983000  0.53868000  0.02960000  1.0
  H  H4  1  0.90393000  0.41701000  0.38975000  1.0
  H  H5  1  0.59606000  0.91699000  0.11025000  1.0
  H  H6  1  0.09603000  0.58300000  0.61026000  1.0
  H  H7  1  0.40397000  0.08300000  0.88974000  1.0
  H  H8  1  0.76657000  0.32653000  0.30541000  1.0
  H  H9  1  0.73342000  0.82652000  0.19459000  1.0
  H  H10  1  0.23340000  0.67349000  0.69460000  1.0
  H  H11  1  0.26659000  0.17350000  0.80540000  1.0
  H  H12  1  0.05169000  0.24857000  0.35108000  1.0
  H  H13  1  0.44830000  0.74855000  0.14892000  1.0
  H  H14  1  0.94827000  0.75144000  0.64892000  1.0
  H  H15  1  0.55173000  0.25144000  0.85108000  1.0
  H  H16  1  0.48307000  0.41625000  0.70481000  1.0
  H  H17  1  0.01692000  0.91624000  0.79519000  1.0
  H  H18  1  0.51688000  0.58375000  0.29518000  1.0
  H  H19  1  0.98311000  0.08374000  0.20481000  1.0
  H  H20  1  0.64526000  0.52840000  0.64400000  1.0
  H  H21  1  0.85473000  0.02838000  0.85599000  1.0
  H  H22  1  0.35468000  0.47161000  0.35599000  1.0
  H  H23  1  0.14532000  0.97161000  0.14401000  1.0
  H  H24  1  0.02660000  0.41376000  0.70268000  1.0
  H  H25  1  0.47339000  0.91373000  0.79731000  1.0
  H  H26  1  0.97335000  0.58627000  0.29731000  1.0
  H  H27  1  0.52665000  0.08626000  0.20269000  1.0
  H  H28  1  0.86223000  0.31763000  0.76757000  1.0
  H  H29  1  0.63777000  0.81760000  0.73242000  1.0
  H  H30  1  0.13774000  0.68241000  0.23242000  1.0
  H  H31  1  0.36225000  0.18240000  0.26758000  1.0
  C  C32  1  0.73881000  0.18861000  0.40496000  1.0
  C  C33  1  0.76119000  0.68860000  0.09504000  1.0
  C  C34  1  0.26114000  0.81137000  0.59505000  1.0
  C  C35  1  0.23886000  0.31137000  0.90495000  1.0
  C  C36  1  0.55622000  0.28225000  0.60774000  1.0
  C  C37  1  0.94377000  0.78224000  0.89226000  1.0
  C  C38  1  0.44377000  0.71775000  0.39226000  1.0
  C  C39  1  0.05625000  0.21775000  0.10774000  1.0
  C  C40  1  0.90013000  0.17433000  0.66983000  1.0
  C  C41  1  0.59986000  0.67431000  0.83017000  1.0
  C  C42  1  0.09981000  0.82572000  0.33017000  1.0
  C  C43  1  0.40016000  0.32568000  0.16983000  1.0
  C  C44  1  0.87291000  0.30087000  0.35911000  1.0
  C  C45  1  0.62708000  0.80085000  0.14089000  1.0
  C  C46  1  0.12705000  0.69914000  0.64090000  1.0
  C  C47  1  0.37294000  0.19914000  0.85910000  1.0
  C  C48  1  0.62682000  0.40604000  0.66789000  1.0
  C  C49  1  0.87317000  0.90602000  0.83211000  1.0
  C  C50  1  0.37313000  0.59397000  0.33210000  1.0
  C  C51  1  0.12687000  0.09396000  0.16789000  1.0
  C  C52  1  0.86564000  0.33660000  0.70794000  1.0
  C  C53  1  0.63436000  0.83657000  0.79206000  1.0
  C  C54  1  0.13432000  0.66344000  0.29206000  1.0
  C  C55  1  0.36568000  0.16342000  0.20794000  1.0
  S  S56  1  0.69502000  0.70933000  0.45451000  1.0
  S  S57  1  0.80498000  0.20932000  0.04549000  1.0
  S  S58  1  0.30495000  0.29067000  0.54549000  1.0
  S  S59  1  0.19505000  0.79067000  0.95451000  1.0
  N  N60  1  0.71490000  0.15554000  0.60943000  1.0
  N  N61  1  0.78509000  0.65552000  0.89057000  1.0
  N  N62  1  0.28507000  0.84447000  0.39056000  1.0
  N  N63  1  0.21494000  0.34446000  0.10944000  1.0
  O  O64  1  0.86126000  0.10614000  0.45742000  1.0
  O  O65  1  0.63875000  0.60613000  0.04258000  1.0
  O  O66  1  0.13870000  0.89386000  0.54258000  1.0
  O  O67  1  0.36131000  0.39386000  0.95742000  1.0
  O  O68  1  0.49659000  0.81968000  0.60522000  1.0
  O  O69  1  0.00341000  0.31968000  0.89478000  1.0
  O  O70  1  0.50339000  0.18031000  0.39478000  1.0
  O  O71  1  0.99661000  0.68031000  0.10522000  1.0
  O  O72  1  0.06001000  0.07175000  0.68789000  1.0
  O  O73  1  0.43998000  0.57173000  0.81211000  1.0
  O  O74  1  0.94000000  0.92827000  0.31211000  1.0
  O  O75  1  0.56005000  0.42826000  0.18789000  1.0
