# generated using pymatgen
data_LaNiH16C12(NO4)3
_symmetry_space_group_name_H-M   'P 1'
_cell_length_a   8.54901000
_cell_length_b   9.77707000
_cell_length_c   12.85695027
_cell_angle_alpha   67.65332313
_cell_angle_beta   81.01616095
_cell_angle_gamma   65.73100000
_symmetry_Int_Tables_number   1
_chemical_formula_structural   LaNiH16C12(NO4)3
_chemical_formula_sum   'La2 Ni2 H32 C24 N6 O24'
_cell_volume   906.09560920
_cell_formula_units_Z   2
loop_
 _symmetry_equiv_pos_site_id
 _symmetry_equiv_pos_as_xyz
  1  'x, y, z'
loop_
 _atom_site_type_symbol
 _atom_site_label
 _atom_site_symmetry_multiplicity
 _atom_site_fract_x
 _atom_site_fract_y
 _atom_site_fract_z
 _atom_site_occupancy
  La  La0  1  0.24996000  0.00614000  0.98780000  1.0
  La  La1  1  0.75003000  0.99386000  0.01220000  1.0
  Ni  Ni2  1  0.74998000  0.83710000  0.32594000  1.0
  Ni  Ni3  1  0.25002000  0.16291000  0.67405000  1.0
  H  H4  1  0.58724000  0.69846000  0.49832000  1.0
  H  H5  1  0.91278000  0.80325000  0.49838000  1.0
  H  H6  1  0.41276000  0.30154000  0.50168000  1.0
  H  H7  1  0.08722000  0.19675000  0.50162000  1.0
  H  H8  1  0.35467000  0.33355000  0.25377000  1.0
  H  H9  1  0.14539000  0.41273000  0.25368000  1.0
  H  H10  1  0.64533000  0.66645000  0.74623000  1.0
  H  H11  1  0.85461000  0.58727000  0.74632000  1.0
  H  H12  1  0.45474000  0.60985000  0.37537000  1.0
  H  H13  1  0.04521000  0.01484000  0.37537000  1.0
  H  H14  1  0.54526000  0.39015000  0.62463000  1.0
  H  H15  1  0.95479000  0.98516000  0.62463000  1.0
  H  H16  1  0.37626000  0.80915000  0.37461000  1.0
  H  H17  1  0.12375000  0.81621000  0.37474000  1.0
  H  H18  1  0.62373000  0.19085000  0.62539000  1.0
  H  H19  1  0.87625000  0.18379000  0.62526000  1.0
  H  H20  1  0.80468000  0.46589000  0.53684000  1.0
  H  H21  1  0.69546000  0.99741000  0.53689000  1.0
  H  H22  1  0.19532000  0.53410000  0.46317000  1.0
  H  H23  1  0.30454000  0.00259000  0.46311000  1.0
  H  H24  1  0.70953000  0.43370000  0.43896000  1.0
  H  H25  1  0.79053000  0.12740000  0.43897000  1.0
  H  H26  1  0.29047000  0.56630000  0.56104000  1.0
  H  H27  1  0.20947000  0.87260000  0.56103000  1.0
  H  H28  1  0.14612000  0.38955000  0.06315000  1.0
  H  H29  1  0.35412000  0.54720000  0.06320000  1.0
  H  H30  1  0.85388000  0.61045000  0.93685000  1.0
  H  H31  1  0.64588000  0.45279000  0.93681000  1.0
  H  H32  1  0.19139000  0.21832000  0.18612000  1.0
  H  H33  1  0.30880000  0.59549000  0.18617000  1.0
  H  H34  1  0.80860000  0.78168000  0.81388000  1.0
  H  H35  1  0.69120000  0.40451000  0.81383000  1.0
  C  C36  1  0.51598000  0.77999000  0.22945000  1.0
  C  C37  1  0.98414000  0.99052000  0.22948000  1.0
  C  C38  1  0.48402000  0.22001000  0.77055000  1.0
  C  C39  1  0.01586000  0.00948000  0.77052000  1.0
  C  C40  1  0.48875000  0.71410000  0.35613000  1.0
  C  C41  1  0.01132000  0.92976000  0.35616000  1.0
  C  C42  1  0.51125000  0.28590000  0.64387000  1.0
  C  C43  1  0.98868000  0.07024000  0.64384000  1.0
  C  C44  1  0.76226000  0.51357000  0.44897000  1.0
  C  C45  1  0.73780000  0.03750000  0.44901000  1.0
  C  C46  1  0.23774000  0.48643000  0.55103000  1.0
  C  C47  1  0.26220000  0.96250000  0.55099000  1.0
  C  C48  1  0.92411000  0.50349000  0.37730000  1.0
  C  C49  1  0.57596000  0.11928000  0.37737000  1.0
  C  C50  1  0.07589000  0.49651000  0.62270000  1.0
  C  C51  1  0.42404000  0.88072000  0.62263000  1.0
  C  C52  1  0.41027000  0.22614000  0.08314000  1.0
  C  C53  1  0.08992000  0.69070000  0.08311000  1.0
  C  C54  1  0.58973000  0.77386000  0.91686000  1.0
  C  C55  1  0.91008000  0.30930000  0.91689000  1.0
  C  C56  1  0.23999000  0.30980000  0.13137000  1.0
  C  C57  1  0.26025000  0.55879000  0.13138000  1.0
  C  C58  1  0.76001000  0.69020000  0.86863000  1.0
  C  C59  1  0.73975000  0.44121000  0.86862000  1.0
  N  N60  1  0.63317000  0.67773000  0.42415000  1.0
  N  N61  1  0.86685000  0.89815000  0.42418000  1.0
  N  N62  1  0.36683000  0.32227000  0.57585000  1.0
  N  N63  1  0.13315000  0.10185000  0.57582000  1.0
  N  N64  1  0.25008000  0.40143000  0.19714000  1.0
  N  N65  1  0.74992000  0.59857000  0.80286000  1.0
  O  O66  1  0.41221000  0.78736000  0.16644000  1.0
  O  O67  1  0.08792000  0.04613000  0.16646000  1.0
  O  O68  1  0.58779000  0.21264000  0.83356000  1.0
  O  O69  1  0.91208000  0.95387000  0.83354000  1.0
  O  O70  1  0.64005000  0.82833000  0.19779000  1.0
  O  O71  1  0.86007000  0.97386000  0.19780000  1.0
  O  O72  1  0.35995000  0.17167000  0.80221000  1.0
  O  O73  1  0.13993000  0.02614000  0.80220000  1.0
  O  O74  1  0.95732000  0.62923000  0.33172000  1.0
  O  O75  1  0.54268000  0.03926000  0.33169000  1.0
  O  O76  1  0.04268000  0.37077000  0.66828000  1.0
  O  O77  1  0.45732000  0.96074000  0.66831000  1.0
  O  O78  1  0.02054000  0.36795000  0.37067000  1.0
  O  O79  1  0.47956000  0.26142000  0.37083000  1.0
  O  O80  1  0.97946000  0.63205000  0.62933000  1.0
  O  O81  1  0.52044000  0.73858000  0.62917000  1.0
  O  O82  1  0.41107000  0.11931000  0.04742000  1.0
  O  O83  1  0.08908000  0.83325000  0.04742000  1.0
  O  O84  1  0.58893000  0.88069000  0.95258000  1.0
  O  O85  1  0.91093000  0.16675000  0.95258000  1.0
  O  O86  1  0.54099000  0.25587000  0.07894000  1.0
  O  O87  1  0.95918000  0.66523000  0.07887000  1.0
  O  O88  1  0.45901000  0.74413000  0.92106000  1.0
  O  O89  1  0.04082000  0.33477000  0.92113000  1.0
