# generated using pymatgen
data_LaH6C9(ClO3)3
_symmetry_space_group_name_H-M   'P 1'
_cell_length_a   7.70616000
_cell_length_b   8.95729000
_cell_length_c   11.77370000
_cell_angle_alpha   73.82740000
_cell_angle_beta   73.96950000
_cell_angle_gamma   83.42700000
_symmetry_Int_Tables_number   1
_chemical_formula_structural   LaH6C9(ClO3)3
_chemical_formula_sum   'La2 H12 C18 Cl6 O18'
_cell_volume   749.56203008
_cell_formula_units_Z   2
loop_
 _symmetry_equiv_pos_site_id
 _symmetry_equiv_pos_as_xyz
  1  'x, y, z'
loop_
 _atom_site_type_symbol
 _atom_site_label
 _atom_site_symmetry_multiplicity
 _atom_site_fract_x
 _atom_site_fract_y
 _atom_site_fract_z
 _atom_site_occupancy
  La  La0  1  0.11382000  0.40795000  0.17904000  1.0
  La  La1  1  0.88618000  0.59205000  0.82096000  1.0
  H  H2  1  0.29682000  0.56452000  0.87468000  1.0
  H  H3  1  0.70320000  0.43548000  0.12531000  1.0
  H  H4  1  0.21975000  0.39738000  0.90898000  1.0
  H  H5  1  0.78027000  0.60261000  0.09101000  1.0
  H  H6  1  0.20377000  0.42109000  0.41787000  1.0
  H  H7  1  0.79623000  0.57893000  0.58213000  1.0
  H  H8  1  0.27787000  0.58183000  0.34091000  1.0
  H  H9  1  0.72216000  0.41817000  0.65907000  1.0
  H  H10  1  0.55363000  0.33044000  0.05002000  1.0
  H  H11  1  0.44637000  0.66956000  0.94998000  1.0
  H  H12  1  0.46803000  0.26232000  0.18939000  1.0
  H  H13  1  0.53198000  0.73769000  0.81061000  1.0
  C  C14  1  0.97955000  0.05565000  0.18616000  1.0
  C  C15  1  0.02044000  0.94434000  0.81385000  1.0
  C  C16  1  0.14303000  0.08074000  0.07410000  1.0
  C  C17  1  0.85696000  0.91926000  0.92590000  1.0
  C  C18  1  0.22543000  0.95518000  0.02605000  1.0
  C  C19  1  0.77456000  0.04482000  0.97396000  1.0
  C  C20  1  0.17354000  0.80348000  0.09050000  1.0
  C  C21  1  0.82645000  0.19652000  0.90950000  1.0
  C  C22  1  0.00612000  0.77804000  0.19875000  1.0
  C  C23  1  0.99387000  0.22195000  0.80125000  1.0
  C  C24  1  0.92250000  0.90345000  0.24570000  1.0
  C  C25  1  0.07749000  0.09655000  0.75431000  1.0
  C  C26  1  0.96902000  0.16470000  0.45390000  1.0
  C  C27  1  0.03099000  0.83530000  0.54610000  1.0
  C  C28  1  0.13230000  0.07478000  0.39179000  1.0
  C  C29  1  0.86771000  0.92523000  0.60821000  1.0
  C  C30  1  0.84791000  0.08598000  0.56134000  1.0
  C  C31  1  0.15209000  0.91402000  0.43866000  1.0
  Cl  Cl32  1  0.40141000  0.98968000  0.89644000  1.0
  Cl  Cl33  1  0.59857000  0.01032000  0.10357000  1.0
  Cl  Cl34  1  0.74398000  0.86924000  0.37368000  1.0
  Cl  Cl35  1  0.25602000  0.13075000  0.62633000  1.0
  Cl  Cl36  1  0.66666667  0.18783000  0.63266000  1.0
  Cl  Cl37  1  0.33333333  0.81217000  0.36734000  1.0
  O  O38  1  0.90875000  0.17747000  0.21732000  1.0
  O  O39  1  0.09124000  0.82253000  0.78268000  1.0
  O  O40  1  0.19558000  0.21905000  0.03268000  1.0
  O  O41  1  0.80441000  0.78095000  0.96733000  1.0
  O  O42  1  0.25508000  0.67885000  0.06712000  1.0
  O  O43  1  0.74491000  0.32116000  0.93288000  1.0
  O  O44  1  0.95343000  0.63947000  0.24104000  1.0
  O  O45  1  0.04656000  0.36052000  0.75897000  1.0
  O  O46  1  0.95434000  0.30821000  0.40238000  1.0
  O  O47  1  0.04566000  0.69179000  0.59762000  1.0
  O  O48  1  0.23857000  0.15654000  0.29762000  1.0
  O  O49  1  0.76144000  0.84346000  0.70238000  1.0
  O  O50  1  0.18381000  0.50698000  0.90759000  1.0
  O  O51  1  0.81621000  0.49301000  0.09240000  1.0
  O  O52  1  0.26796000  0.47590000  0.33544000  1.0
  O  O53  1  0.73205000  0.52410000  0.66456000  1.0
  O  O54  1  0.47718000  0.36005000  0.12480000  1.0
  O  O55  1  0.52282000  0.63995000  0.87520000  1.0
