# generated using pymatgen
data_CuH20C14(N2O3)2
_symmetry_space_group_name_H-M   'P 1'
_cell_length_a   9.05679000
_cell_length_b   9.05680000
_cell_length_c   11.40280000
_cell_angle_alpha   70.48230000
_cell_angle_beta   70.48240000
_cell_angle_gamma   77.57890000
_symmetry_Int_Tables_number   1
_chemical_formula_structural   CuH20C14(N2O3)2
_chemical_formula_sum   'Cu2 H40 C28 N8 O12'
_cell_volume   825.26382034
_cell_formula_units_Z   2
loop_
 _symmetry_equiv_pos_site_id
 _symmetry_equiv_pos_as_xyz
  1  'x, y, z'
loop_
 _atom_site_type_symbol
 _atom_site_label
 _atom_site_symmetry_multiplicity
 _atom_site_fract_x
 _atom_site_fract_y
 _atom_site_fract_z
 _atom_site_occupancy
  Cu  Cu0  1  0.05105000  0.94895000  0.25000000  1.0
  Cu  Cu1  1  0.94895000  0.05105000  0.75000000  1.0
  H  H2  1  0.08392000  0.58674000  0.25252000  1.0
  H  H3  1  0.41326000  0.91607000  0.24749000  1.0
  H  H4  1  0.91607000  0.41326000  0.74749000  1.0
  H  H5  1  0.58674000  0.08392000  0.75251000  1.0
  H  H6  1  0.22595000  0.35347000  0.42454000  1.0
  H  H7  1  0.64653000  0.77406000  0.07546000  1.0
  H  H8  1  0.77405000  0.64653000  0.57546000  1.0
  H  H9  1  0.35347000  0.22595000  0.92454000  1.0
  H  H10  1  0.14432000  0.78420000  0.51845000  1.0
  H  H11  1  0.21580000  0.85568000  0.98155000  1.0
  H  H12  1  0.85568000  0.21580000  0.48155000  1.0
  H  H13  1  0.78419000  0.14432000  0.01845000  1.0
  H  H14  1  0.25855000  0.55710000  0.66100000  1.0
  H  H15  1  0.44290000  0.74145000  0.83900000  1.0
  H  H16  1  0.74145000  0.44290000  0.33900000  1.0
  H  H17  1  0.55710000  0.25855000  0.16100000  1.0
  H  H18  1  0.22430000  0.36803000  0.67057000  1.0
  H  H19  1  0.63197000  0.77570000  0.82943000  1.0
  H  H20  1  0.77570000  0.63197000  0.32943000  1.0
  H  H21  1  0.36803000  0.22430000  0.17057000  1.0
  H  H22  1  0.50936000  0.38093000  0.63150000  1.0
  H  H23  1  0.61907000  0.49065000  0.86850000  1.0
  H  H24  1  0.49065000  0.61907000  0.36850000  1.0
  H  H25  1  0.38093000  0.50935000  0.13150000  1.0
  H  H26  1  0.47752000  0.33400000  0.50468000  1.0
  H  H27  1  0.66600000  0.52248000  0.99532000  1.0
  H  H28  1  0.52248000  0.66600000  0.49532000  1.0
  H  H29  1  0.33400000  0.47752000  0.00468000  1.0
  H  H30  1  0.97842000  0.39202000  0.92878000  1.0
  H  H31  1  0.60797000  0.02158000  0.57122000  1.0
  H  H32  1  0.02158000  0.60797000  0.07122000  1.0
  H  H33  1  0.39203000  0.97842000  0.42878000  1.0
  H  H34  1  0.82423000  0.89416000  0.18009000  1.0
  H  H35  1  0.10584000  0.17577000  0.31991000  1.0
  H  H36  1  0.17577000  0.10584000  0.81991000  1.0
  H  H37  1  0.89416000  0.82423000  0.68009000  1.0
  H  H38  1  0.93690000  0.85788000  0.04740000  1.0
  H  H39  1  0.14212000  0.06310000  0.45260000  1.0
  H  H40  1  0.06310000  0.14212000  0.95260000  1.0
  H  H41  1  0.85788000  0.93690000  0.54741000  1.0
  C  C42  1  0.12018000  0.59421000  0.33147000  1.0
  C  C43  1  0.40579000  0.87982000  0.16853000  1.0
  C  C44  1  0.87982000  0.40580000  0.66853000  1.0
  C  C45  1  0.59420000  0.12018000  0.83147000  1.0
  C  C46  1  0.19043000  0.47786000  0.41606000  1.0
  C  C47  1  0.52214000  0.80957000  0.08395000  1.0
  C  C48  1  0.80957000  0.52214000  0.58394000  1.0
  C  C49  1  0.47786000  0.19043000  0.91605000  1.0
  C  C50  1  0.14661000  0.70137000  0.46763000  1.0
  C  C51  1  0.29863000  0.85339000  0.03237000  1.0
  C  C52  1  0.85340000  0.29863000  0.53237000  1.0
  C  C53  1  0.70137000  0.14660000  0.96763000  1.0
  C  C54  1  0.28188000  0.47262000  0.60493000  1.0
  C  C55  1  0.52739000  0.71812000  0.89507000  1.0
  C  C56  1  0.71812000  0.52739000  0.39507000  1.0
  C  C57  1  0.47261000  0.28188000  0.10493000  1.0
  C  C58  1  0.45854000  0.42990000  0.54927000  1.0
  C  C59  1  0.57011000  0.54146000  0.95073000  1.0
  C  C60  1  0.54146000  0.57011000  0.45073000  1.0
  C  C61  1  0.42990000  0.45854000  0.04927000  1.0
  C  C62  1  0.01139000  0.29518000  0.12580000  1.0
  C  C63  1  0.70482000  0.98861000  0.37420000  1.0
  C  C64  1  0.98861000  0.70481000  0.87420000  1.0
  C  C65  1  0.29519000  0.01139000  0.62580000  1.0
  C  C66  1  0.99466000  0.42470000  0.00697000  1.0
  C  C67  1  0.57530000  0.00534000  0.49302000  1.0
  C  C68  1  0.00535000  0.57530000  0.99302000  1.0
  C  C69  1  0.42470000  0.99466000  0.50698000  1.0
  N  N70  1  0.09339000  0.73269000  0.36503000  1.0
  N  N71  1  0.26731000  0.90661000  0.13497000  1.0
  N  N72  1  0.90662000  0.26731000  0.63497000  1.0
  N  N73  1  0.73269000  0.09338000  0.86503000  1.0
  N  N74  1  0.20525000  0.54750000  0.50185000  1.0
  N  N75  1  0.45250000  0.79475000  0.99816000  1.0
  N  N76  1  0.79475000  0.45250000  0.49816000  1.0
  N  N77  1  0.54750000  0.20525000  0.00184000  1.0
  O  O78  1  0.01256000  0.15488000  0.11821000  1.0
  O  O79  1  0.84512000  0.98744000  0.38179000  1.0
  O  O80  1  0.98744000  0.84512000  0.88179000  1.0
  O  O81  1  0.15488000  0.01256000  0.61820000  1.0
  O  O82  1  0.02463000  0.32690000  0.22078000  1.0
  O  O83  1  0.67309000  0.97537000  0.27922000  1.0
  O  O84  1  0.97537000  0.67310000  0.77921000  1.0
  O  O85  1  0.32690000  0.02462000  0.72079000  1.0
  O  O86  1  0.92320000  0.83228000  0.14133000  1.0
  O  O87  1  0.16773000  0.07680000  0.35867000  1.0
  O  O88  1  0.07680000  0.16773000  0.85867000  1.0
  O  O89  1  0.83227000  0.92320000  0.64133000  1.0
