# generated using pymatgen
data_ZnH8C12(IN2)2
_symmetry_space_group_name_H-M   'P 1'
_cell_length_a   14.77360000
_cell_length_b   18.97508685
_cell_length_c   31.17920000
_cell_angle_alpha   100.55911406
_cell_angle_beta   90.02110000
_cell_angle_gamma   112.88918199
_symmetry_Int_Tables_number   1
_chemical_formula_structural   ZnH8C12(IN2)2
_chemical_formula_sum   'Zn12 H96 C144 I24 N48'
_cell_volume   7891.08017268
_cell_formula_units_Z   12
loop_
 _symmetry_equiv_pos_site_id
 _symmetry_equiv_pos_as_xyz
  1  'x, y, z'
loop_
 _atom_site_type_symbol
 _atom_site_label
 _atom_site_symmetry_multiplicity
 _atom_site_fract_x
 _atom_site_fract_y
 _atom_site_fract_z
 _atom_site_occupancy
  Zn  Zn0  1  0.03193000  0.33633000  0.26769000  1.0
  Zn  Zn1  1  0.71916000  0.16614000  0.09149000  1.0
  Zn  Zn2  1  0.97698000  0.74971000  0.44144000  1.0
  Zn  Zn3  1  0.30447000  0.33627000  0.76772000  1.0
  Zn  Zn4  1  0.44699000  0.16599000  0.59149000  1.0
  Zn  Zn5  1  0.77277000  0.74970000  0.94142000  1.0
  Zn  Zn6  1  0.69554000  0.66373000  0.23228000  1.0
  Zn  Zn7  1  0.55301000  0.83401000  0.40851000  1.0
  Zn  Zn8  1  0.22723000  0.25030000  0.05858000  1.0
  Zn  Zn9  1  0.96807000  0.66367000  0.73232000  1.0
  Zn  Zn10  1  0.28084000  0.83385000  0.90851000  1.0
  Zn  Zn11  1  0.02302000  0.25029000  0.55856000  1.0
  H  H12  1  0.34137000  0.28288000  0.23445000  1.0
  H  H13  1  0.16157000  0.26026000  0.23158000  1.0
  H  H14  1  0.21765000  0.46825000  0.31839000  1.0
  H  H15  1  0.40021000  0.49961000  0.32492000  1.0
  H  H16  1  0.84912000  0.53975000  0.29893000  1.0
  H  H17  1  0.97572000  0.64764000  0.35374000  1.0
  H  H18  1  0.75931000  0.67419000  0.43157000  1.0
  H  H19  1  0.62455000  0.57217000  0.37890000  1.0
  H  H20  1  0.49254000  0.27462000  0.17828000  1.0
  H  H21  1  0.54162000  0.19494000  0.11813000  1.0
  H  H22  1  0.83781000  0.31093000  0.16156000  1.0
  H  H23  1  0.80007000  0.39384000  0.22559000  1.0
  H  H24  1  0.85625000  0.96353000  0.51390000  1.0
  H  H25  1  0.90389000  0.84798000  0.51011000  1.0
  H  H26  1  0.95035000  0.83878000  0.37861000  1.0
  H  H27  1  0.90585000  0.95352000  0.37704000  1.0
  H  H28  1  0.78310000  0.22169000  0.37722000  1.0
  H  H29  1  0.85852000  0.30202000  0.32045000  1.0
  H  H30  1  0.09825000  0.24000000  0.31837000  1.0
  H  H31  1  0.03279000  0.15792000  0.37491000  1.0
  H  H32  1  0.65343000  0.01254000  0.52254000  1.0
  H  H33  1  0.52547000  0.03834000  0.56954000  1.0
  H  H34  1  0.56270000  0.23564000  0.52084000  1.0
  H  H35  1  0.69318000  0.21873000  0.47252000  1.0
  H  H36  1  0.94163000  0.28287000  0.73437000  1.0
  H  H37  1  0.09879000  0.26016000  0.73156000  1.0
  H  H38  1  0.25055000  0.46801000  0.81846000  1.0
  H  H39  1  0.09937000  0.49940000  0.82497000  1.0
  H  H40  1  0.69059000  0.53968000  0.79896000  1.0
  H  H41  1  0.67201000  0.64768000  0.85375000  1.0
  H  H42  1  0.91499000  0.67410000  0.93160000  1.0
  H  H43  1  0.94765000  0.57199000  0.87894000  1.0
  H  H44  1  0.78195000  0.27439000  0.67830000  1.0
  H  H45  1  0.65306000  0.19471000  0.61819000  1.0
  H  H46  1  0.47290000  0.31072000  0.66167000  1.0
  H  H47  1  0.59371000  0.39370000  0.72565000  1.0
  H  H48  1  0.10698000  0.96330000  0.01387000  1.0
  H  H49  1  0.94392000  0.84776000  0.00997000  1.0
  H  H50  1  0.88862000  0.83872000  0.87843000  1.0
  H  H51  1  0.04772000  0.95353000  0.87698000  1.0
  H  H52  1  0.43863000  0.22162000  0.87734000  1.0
  H  H53  1  0.44347000  0.30195000  0.82056000  1.0
  H  H54  1  0.14182000  0.24013000  0.81847000  1.0
  H  H55  1  0.12523000  0.15800000  0.87500000  1.0
  H  H56  1  0.35943000  0.01236000  0.02266000  1.0
  H  H57  1  0.51339000  0.03830000  0.06955000  1.0
  H  H58  1  0.67281000  0.23566000  0.02081000  1.0
  H  H59  1  0.52529000  0.21862000  0.97253000  1.0
  H  H60  1  0.05838000  0.71713000  0.26563000  1.0
  H  H61  1  0.90121000  0.73984000  0.26843000  1.0
  H  H62  1  0.74945000  0.53199000  0.18154000  1.0
  H  H63  1  0.90063000  0.50060000  0.17503000  1.0
  H  H64  1  0.30941000  0.46032000  0.20104000  1.0
  H  H65  1  0.32799000  0.35232000  0.14625000  1.0
  H  H66  1  0.08501000  0.32589000  0.06841000  1.0
  H  H67  1  0.05235000  0.42800000  0.12106000  1.0
  H  H68  1  0.21805000  0.72561000  0.32170000  1.0
  H  H69  1  0.34695000  0.80530000  0.38181000  1.0
  H  H70  1  0.52710000  0.68928000  0.33833000  1.0
  H  H71  1  0.40628000  0.60630000  0.27435000  1.0
  H  H72  1  0.89301000  0.03669000  0.98614000  1.0
  H  H73  1  0.05607000  0.15224000  0.99004000  1.0
  H  H74  1  0.11138000  0.16129000  0.12157000  1.0
  H  H75  1  0.95227000  0.04647000  0.12302000  1.0
  H  H76  1  0.56137000  0.77838000  0.12266000  1.0
  H  H77  1  0.55653000  0.69805000  0.17944000  1.0
  H  H78  1  0.85818000  0.75986000  0.18153000  1.0
  H  H79  1  0.87478000  0.84200000  0.12500000  1.0
  H  H80  1  0.64058000  0.98764000  0.97734000  1.0
  H  H81  1  0.48662000  0.96170000  0.93045000  1.0
  H  H82  1  0.32719000  0.76435000  0.97919000  1.0
  H  H83  1  0.47470000  0.78138000  0.02747000  1.0
  H  H84  1  0.65863000  0.71712000  0.76554000  1.0
  H  H85  1  0.83844000  0.73975000  0.76842000  1.0
  H  H86  1  0.78234000  0.53175000  0.68161000  1.0
  H  H87  1  0.59978000  0.50039000  0.67508000  1.0
  H  H88  1  0.15088000  0.46025000  0.70107000  1.0
  H  H89  1  0.02428000  0.35236000  0.64626000  1.0
  H  H90  1  0.24068000  0.32581000  0.56843000  1.0
  H  H91  1  0.37545000  0.42784000  0.62110000  1.0
  H  H92  1  0.50746000  0.72538000  0.82172000  1.0
  H  H93  1  0.45838000  0.80506000  0.88187000  1.0
  H  H94  1  0.16219000  0.68906000  0.83844000  1.0
  H  H95  1  0.19994000  0.60616000  0.77441000  1.0
  H  H96  1  0.14374000  0.03647000  0.48609000  1.0
  H  H97  1  0.09610000  0.15202000  0.48989000  1.0
  H  H98  1  0.04965000  0.16122000  0.62138000  1.0
  H  H99  1  0.09415000  0.04648000  0.62296000  1.0
  H  H100  1  0.21690000  0.77830000  0.62278000  1.0
  H  H101  1  0.14148000  0.69798000  0.67955000  1.0
  H  H102  1  0.90175000  0.75999000  0.68163000  1.0
  H  H103  1  0.96721000  0.84208000  0.62509000  1.0
  H  H104  1  0.34657000  0.98746000  0.47745000  1.0
  H  H105  1  0.47453000  0.96166000  0.43045000  1.0
  H  H106  1  0.43730000  0.76436000  0.47916000  1.0
  H  H107  1  0.30681000  0.78126000  0.52748000  1.0
  C  C108  1  0.65081000  0.48443000  0.30319000  1.0
  C  C109  1  0.61294000  0.38602000  0.24381000  1.0
  C  C110  1  0.49121000  0.40961000  0.27981000  1.0
  C  C111  1  0.38436000  0.39284000  0.28042000  1.0
  C  C112  1  0.31628000  0.32442000  0.25410000  1.0
  C  C113  1  0.21724000  0.31157000  0.25252000  1.0
  C  C114  1  0.24863000  0.42846000  0.30103000  1.0
  C  C115  1  0.34922000  0.44550000  0.30452000  1.0
  C  C116  1  0.72679000  0.54762000  0.33479000  1.0
  C  C117  1  0.82682000  0.56933000  0.32762000  1.0
  C  C118  1  0.89691000  0.62812000  0.35793000  1.0
  C  C119  1  0.77605000  0.64340000  0.40162000  1.0
  C  C120  1  0.70133000  0.58629000  0.37243000  1.0
  C  C121  1  0.64244000  0.34025000  0.20708000  1.0
  C  C122  1  0.56963000  0.28387000  0.17614000  1.0
  C  C123  1  0.59710000  0.23978000  0.14232000  1.0
  C  C124  1  0.76242000  0.30532000  0.16662000  1.0
  C  C125  1  0.74104000  0.35134000  0.20197000  1.0
  C  C126  1  0.85447000  0.03573000  0.44535000  1.0
  C  C127  1  0.75939000  0.10259000  0.46673000  1.0
  C  C128  1  0.86084000  0.13456000  0.41280000  1.0
  C  C129  1  0.88072000  0.96826000  0.44590000  1.0
  C  C130  1  0.87798000  0.93772000  0.48364000  1.0
  C  C131  1  0.90380000  0.87416000  0.48170000  1.0
  C  C132  1  0.92996000  0.86870000  0.40788000  1.0
  C  C133  1  0.90624000  0.93236000  0.40719000  1.0
  C  C134  1  0.90251000  0.18357000  0.38006000  1.0
  C  C135  1  0.85295000  0.22466000  0.36474000  1.0
  C  C136  1  0.89395000  0.26853000  0.33333333  1.0
  C  C137  1  0.02837000  0.23404000  0.33208000  1.0
  C  C138  1  0.99223000  0.18872000  0.36327000  1.0
  C  C139  1  0.68273000  0.11419000  0.49416000  1.0
  C  C140  1  0.63485000  0.06239000  0.52148000  1.0
  C  C141  1  0.56457000  0.07627000  0.54727000  1.0
  C  C142  1  0.58576000  0.18732000  0.52011000  1.0
  C  C143  1  0.65677000  0.17749000  0.49338000  1.0
  C  C144  1  0.83360000  0.48433000  0.80318000  1.0
  C  C145  1  0.77311000  0.38594000  0.74379000  1.0
  C  C146  1  0.91842000  0.40953000  0.77980000  1.0
  C  C147  1  0.00850000  0.39274000  0.78041000  1.0
  C  C148  1  0.00820000  0.32434000  0.75407000  1.0
  C  C149  1  0.09439000  0.31146000  0.75250000  1.0
  C  C150  1  0.17981000  0.42824000  0.80107000  1.0
  C  C151  1  0.09623000  0.44530000  0.80456000  1.0
  C  C152  1  0.82082000  0.54748000  0.83482000  1.0
  C  C153  1  0.74249000  0.56922000  0.82764000  1.0
  C  C154  1  0.73123000  0.62805000  0.85795000  1.0
  C  C155  1  0.86741000  0.64330000  0.90165000  1.0
  C  C156  1  0.88499000  0.58616000  0.87246000  1.0
  C  C157  1  0.69782000  0.34016000  0.70707000  1.0
  C  C158  1  0.71412000  0.28369000  0.67615000  1.0
  C  C159  1  0.64252000  0.23962000  0.64235000  1.0
  C  C160  1  0.54273000  0.30514000  0.66666667  1.0
  C  C161  1  0.61021000  0.35118000  0.70200000  1.0
  C  C162  1  0.18114000  0.03565000  0.94539000  1.0
  C  C163  1  0.34305000  0.10247000  0.96683000  1.0
  C  C164  1  0.27362000  0.13444000  0.91284000  1.0
  C  C165  1  0.08744000  0.96818000  0.94586000  1.0
  C  C166  1  0.05957000  0.93754000  0.98356000  1.0
  C  C167  1  0.97026000  0.87396000  0.98157000  1.0
  C  C168  1  0.93881000  0.86860000  0.90775000  1.0
  C  C169  1  0.02612000  0.93229000  0.90711000  1.0
  C  C170  1  0.28108000  0.18346000  0.88010000  1.0
  C  C171  1  0.37173000  0.22455000  0.86482000  1.0
  C  C172  1  0.37458000  0.26843000  0.83337000  1.0
  C  C173  1  0.20574000  0.23408000  0.83214000  1.0
  C  C174  1  0.19653000  0.18869000  0.86332000  1.0
  C  C175  1  0.43139000  0.11407000  0.99424000  1.0
  C  C176  1  0.42769000  0.06227000  0.02155000  1.0
  C  C177  1  0.51196000  0.07623000  0.04730000  1.0
  C  C178  1  0.60153000  0.18726000  0.02010000  1.0
  C  C179  1  0.52056000  0.17740000  0.99341000  1.0
  C  C180  1  0.16641000  0.51567000  0.19682000  1.0
  C  C181  1  0.22690000  0.61407000  0.25620000  1.0
  C  C182  1  0.08158000  0.59047000  0.22019000  1.0
  C  C183  1  0.99151000  0.60726000  0.21959000  1.0
  C  C184  1  0.99180000  0.67566000  0.24593000  1.0
  C  C185  1  0.90562000  0.68854000  0.24750000  1.0
  C  C186  1  0.82019000  0.57176000  0.19892000  1.0
  C  C187  1  0.90377000  0.55470000  0.19544000  1.0
  C  C188  1  0.17917000  0.45251000  0.16518000  1.0
  C  C189  1  0.25751000  0.43078000  0.17236000  1.0
  C  C190  1  0.26877000  0.37195000  0.14205000  1.0
  C  C191  1  0.13259000  0.35669000  0.09835000  1.0
  C  C192  1  0.11501000  0.41384000  0.12754000  1.0
  C  C193  1  0.30219000  0.65985000  0.29293000  1.0
  C  C194  1  0.28589000  0.71632000  0.32385000  1.0
  C  C195  1  0.35748000  0.76038000  0.35765000  1.0
  C  C196  1  0.45728000  0.69487000  0.33333333  1.0
  C  C197  1  0.38979000  0.64882000  0.29799000  1.0
  C  C198  1  0.81886000  0.96435000  0.05461000  1.0
  C  C199  1  0.65696000  0.89753000  0.03317000  1.0
  C  C200  1  0.72638000  0.86556000  0.08716000  1.0
  C  C201  1  0.91256000  0.03182000  0.05414000  1.0
  C  C202  1  0.94043000  0.06246000  0.01644000  1.0
  C  C203  1  0.02974000  0.12604000  0.01843000  1.0
  C  C204  1  0.06118000  0.13140000  0.09225000  1.0
  C  C205  1  0.97387000  0.06771000  0.09289000  1.0
  C  C206  1  0.71892000  0.81653000  0.11990000  1.0
  C  C207  1  0.62827000  0.77545000  0.13518000  1.0
  C  C208  1  0.62542000  0.73157000  0.16663000  1.0
  C  C209  1  0.79426000  0.76592000  0.16786000  1.0
  C  C210  1  0.80346000  0.81130000  0.13668000  1.0
  C  C211  1  0.56862000  0.88593000  0.00576000  1.0
  C  C212  1  0.57231000  0.93773000  0.97845000  1.0
  C  C213  1  0.48804000  0.92377000  0.95270000  1.0
  C  C214  1  0.39848000  0.81274000  0.97990000  1.0
  C  C215  1  0.47944000  0.82260000  0.00659000  1.0
  C  C216  1  0.34920000  0.51558000  0.69681000  1.0
  C  C217  1  0.38706000  0.61398000  0.75619000  1.0
  C  C218  1  0.50879000  0.59039000  0.72019000  1.0
  C  C219  1  0.61564000  0.60716000  0.71958000  1.0
  C  C220  1  0.68372000  0.67558000  0.74589000  1.0
  C  C221  1  0.78277000  0.68844000  0.74748000  1.0
  C  C222  1  0.75138000  0.57155000  0.69897000  1.0
  C  C223  1  0.65078000  0.55450000  0.69548000  1.0
  C  C224  1  0.27320000  0.45238000  0.66522000  1.0
  C  C225  1  0.17318000  0.43068000  0.67239000  1.0
  C  C226  1  0.10309000  0.37188000  0.64207000  1.0
  C  C227  1  0.22394000  0.35660000  0.59838000  1.0
  C  C228  1  0.29866000  0.41371000  0.62757000  1.0
  C  C229  1  0.35757000  0.65975000  0.79292000  1.0
  C  C230  1  0.43038000  0.71614000  0.82386000  1.0
  C  C231  1  0.40291000  0.76022000  0.85768000  1.0
  C  C232  1  0.23758000  0.69467000  0.83338000  1.0
  C  C233  1  0.25897000  0.64866000  0.79804000  1.0
  C  C234  1  0.14553000  0.96427000  0.55465000  1.0
  C  C235  1  0.24061000  0.89741000  0.53326000  1.0
  C  C236  1  0.13916000  0.86544000  0.58720000  1.0
  C  C237  1  0.11927000  0.03173000  0.55410000  1.0
  C  C238  1  0.12202000  0.06228000  0.51636000  1.0
  C  C239  1  0.09619000  0.12583000  0.51830000  1.0
  C  C240  1  0.07004000  0.13130000  0.59211000  1.0
  C  C241  1  0.09376000  0.06764000  0.59281000  1.0
  C  C242  1  0.09750000  0.81643000  0.61994000  1.0
  C  C243  1  0.14704000  0.77533000  0.63527000  1.0
  C  C244  1  0.10605000  0.73147000  0.66671000  1.0
  C  C245  1  0.97163000  0.76595000  0.66792000  1.0
  C  C246  1  0.00777000  0.81128000  0.63673000  1.0
  C  C247  1  0.31727000  0.88581000  0.50584000  1.0
  C  C248  1  0.36515000  0.93761000  0.47852000  1.0
  C  C249  1  0.43542000  0.92373000  0.45273000  1.0
  C  C250  1  0.41424000  0.81268000  0.47988000  1.0
  C  C251  1  0.34322000  0.82250000  0.50662000  1.0
  I  I252  1  0.97311000  0.24399000  0.19344000  1.0
  I  I253  1  0.99593000  0.45831000  0.29392000  1.0
  I  I254  1  0.68207000  0.05407000  0.13186000  1.0
  I  I255  1  0.86943000  0.23827000  0.05285000  1.0
  I  I256  1  0.95034000  0.70347000  0.51367000  1.0
  I  I257  1  0.13682000  0.79666000  0.40247000  1.0
  I  I258  1  0.27105000  0.24398000  0.69345000  1.0
  I  I259  1  0.46223000  0.45831000  0.79403000  1.0
  I  I260  1  0.37230000  0.05394000  0.63191000  1.0
  I  I261  1  0.36878000  0.23829000  0.55301000  1.0
  I  I262  1  0.75335000  0.70357000  0.01369000  1.0
  I  I263  1  0.65975000  0.79675000  0.90254000  1.0
  I  I264  1  0.72896000  0.75603000  0.30654000  1.0
  I  I265  1  0.53777000  0.54169000  0.20597000  1.0
  I  I266  1  0.62770000  0.94606000  0.36809000  1.0
  I  I267  1  0.63122000  0.76172000  0.44699000  1.0
  I  I268  1  0.24665000  0.29644000  0.98632000  1.0
  I  I269  1  0.34026000  0.20326000  0.09746000  1.0
  I  I270  1  0.02689000  0.75601000  0.80656000  1.0
  I  I271  1  0.00405000  0.54168000  0.70608000  1.0
  I  I272  1  0.31794000  0.94594000  0.86814000  1.0
  I  I273  1  0.13058000  0.76174000  0.94716000  1.0
  I  I274  1  0.04966000  0.29653000  0.48633000  1.0
  I  I275  1  0.86318000  0.20334000  0.59753000  1.0
  N  N276  1  0.68323000  0.44675000  0.26995000  1.0
  N  N277  1  0.51595000  0.36389000  0.24817000  1.0
  N  N278  1  0.55528000  0.46891000  0.30934000  1.0
  N  N279  1  0.87200000  0.66421000  0.39447000  1.0
  N  N280  1  0.69156000  0.24987000  0.13756000  1.0
  N  N281  1  0.18369000  0.36270000  0.27548000  1.0
  N  N282  1  0.89425000  0.07902000  0.41537000  1.0
  N  N283  1  0.79045000  0.14660000  0.43631000  1.0
  N  N284  1  0.79121000  0.04790000  0.47362000  1.0
  N  N285  1  0.93009000  0.84081000  0.44463000  1.0
  N  N286  1  0.98016000  0.27320000  0.31713000  1.0
  N  N287  1  0.54075000  0.13786000  0.54681000  1.0
  N  N288  1  0.76350000  0.44666000  0.76993000  1.0
  N  N289  1  0.84798000  0.36381000  0.74816000  1.0
  N  N290  1  0.91362000  0.46880000  0.80934000  1.0
  N  N291  1  0.79227000  0.66416000  0.89449000  1.0
  N  N292  1  0.55811000  0.24970000  0.63761000  1.0
  N  N293  1  0.17903000  0.36252000  0.77550000  1.0
  N  N294  1  0.18467000  0.07896000  0.91541000  1.0
  N  N295  1  0.35600000  0.14645000  0.93639000  1.0
  N  N296  1  0.25655000  0.04778000  0.97369000  1.0
  N  N297  1  0.91070000  0.84066000  0.94448000  1.0
  N  N298  1  0.29307000  0.27316000  0.81719000  1.0
  N  N299  1  0.59727000  0.13784000  0.04681000  1.0
  N  N300  1  0.23650000  0.55334000  0.23006000  1.0
  N  N301  1  0.15203000  0.63619000  0.25184000  1.0
  N  N302  1  0.08638000  0.53120000  0.19066000  1.0
  N  N303  1  0.20773000  0.33584000  0.10551000  1.0
  N  N304  1  0.44190000  0.75031000  0.36238000  1.0
  N  N305  1  0.82098000  0.63748000  0.22450000  1.0
  N  N306  1  0.81533000  0.92104000  0.08460000  1.0
  N  N307  1  0.64400000  0.85355000  0.06361000  1.0
  N  N308  1  0.74345000  0.95222000  0.02631000  1.0
  N  N309  1  0.08929000  0.15934000  0.05552000  1.0
  N  N310  1  0.70693000  0.72683000  0.18281000  1.0
  N  N311  1  0.40273000  0.86216000  0.95319000  1.0
  N  N312  1  0.31676000  0.55324000  0.73005000  1.0
  N  N313  1  0.48405000  0.63611000  0.75183000  1.0
  N  N314  1  0.44471000  0.53109000  0.69066000  1.0
  N  N315  1  0.12799000  0.33579000  0.60553000  1.0
  N  N316  1  0.30843000  0.75012000  0.86244000  1.0
  N  N317  1  0.81631000  0.63730000  0.72452000  1.0
  N  N318  1  0.10574000  0.92097000  0.58463000  1.0
  N  N319  1  0.20955000  0.85340000  0.56369000  1.0
  N  N320  1  0.20879000  0.95210000  0.52638000  1.0
  N  N321  1  0.06990000  0.15919000  0.55537000  1.0
  N  N322  1  0.01985000  0.72680000  0.68287000  1.0
  N  N323  1  0.45925000  0.86214000  0.45318000  1.0
