# generated using pymatgen
data_MgZnH14C16(NO8)2
_symmetry_space_group_name_H-M   'P 1'
_cell_length_a   7.00098000
_cell_length_b   7.00095000
_cell_length_c   20.79470000
_cell_angle_alpha   88.77050000
_cell_angle_beta   88.77080000
_cell_angle_gamma   87.52850000
_symmetry_Int_Tables_number   1
_chemical_formula_structural   MgZnH14C16(NO8)2
_chemical_formula_sum   'Mg2 Zn2 H28 C32 N4 O32'
_cell_volume   1017.82373908
_cell_formula_units_Z   2
loop_
 _symmetry_equiv_pos_site_id
 _symmetry_equiv_pos_as_xyz
  1  'x, y, z'
loop_
 _atom_site_type_symbol
 _atom_site_label
 _atom_site_symmetry_multiplicity
 _atom_site_fract_x
 _atom_site_fract_y
 _atom_site_fract_z
 _atom_site_occupancy
  Mg  Mg0  1  0.18692000  0.81308000  0.75000000  1.0
  Mg  Mg1  1  0.81308000  0.18692000  0.25000000  1.0
  Zn  Zn2  1  0.63361000  0.36639000  0.75000000  1.0
  Zn  Zn3  1  0.36639000  0.63361000  0.25000000  1.0
  H  H4  1  0.70333000  0.22838000  0.52476000  1.0
  H  H5  1  0.77162000  0.29666000  0.97525000  1.0
  H  H6  1  0.29667000  0.77162000  0.47525000  1.0
  H  H7  1  0.22838000  0.70334000  0.02475000  1.0
  H  H8  1  0.82608000  0.00848000  0.43925000  1.0
  H  H9  1  0.99153000  0.17392000  0.06075000  1.0
  H  H10  1  0.17393000  0.99152000  0.56075000  1.0
  H  H11  1  0.00848000  0.82608000  0.93925000  1.0
  H  H12  1  0.71444000  0.52518000  0.56459000  1.0
  H  H13  1  0.47482000  0.28555000  0.93541000  1.0
  H  H14  1  0.28556000  0.47482000  0.43541000  1.0
  H  H15  1  0.52518000  0.71445000  0.06459000  1.0
  H  H16  1  0.93001000  0.62225000  0.68017000  1.0
  H  H17  1  0.37775000  0.06999000  0.81983000  1.0
  H  H18  1  0.06999000  0.37775000  0.31983000  1.0
  H  H19  1  0.62225000  0.93002000  0.18017000  1.0
  H  H20  1  0.12166000  0.62109000  0.63817000  1.0
  H  H21  1  0.37890000  0.87834000  0.86183000  1.0
  H  H22  1  0.87834000  0.37891000  0.36183000  1.0
  H  H23  1  0.62109000  0.12166000  0.13817000  1.0
  H  H24  1  0.22288000  0.14967000  0.68060000  1.0
  H  H25  1  0.85033000  0.77712000  0.81940000  1.0
  H  H26  1  0.77712000  0.85033000  0.31940000  1.0
  H  H27  1  0.14967000  0.22288000  0.18060000  1.0
  H  H28  1  0.00088000  0.11413000  0.69381000  1.0
  H  H29  1  0.88587000  0.99912000  0.80619000  1.0
  H  H30  1  0.99912000  0.88587000  0.30619000  1.0
  H  H31  1  0.11412000  0.00088000  0.19381000  1.0
  C  C32  1  0.58278000  0.71780000  0.66821000  1.0
  C  C33  1  0.28219000  0.41722000  0.83179000  1.0
  C  C34  1  0.41722000  0.28219000  0.33179000  1.0
  C  C35  1  0.71781000  0.58278000  0.16821000  1.0
  C  C36  1  0.64977000  0.80227000  0.60501000  1.0
  C  C37  1  0.19773000  0.35023000  0.89499000  1.0
  C  C38  1  0.35023000  0.19772000  0.39499000  1.0
  C  C39  1  0.80227000  0.64977000  0.10501000  1.0
  C  C40  1  0.64682000  0.00116000  0.59360000  1.0
  C  C41  1  0.99884000  0.35318000  0.90640000  1.0
  C  C42  1  0.35318000  0.99884000  0.40640000  1.0
  C  C43  1  0.00116000  0.64683000  0.09360000  1.0
  C  C44  1  0.70798000  0.07468000  0.53377000  1.0
  C  C45  1  0.92532000  0.29202000  0.96624000  1.0
  C  C46  1  0.29203000  0.92532000  0.46623000  1.0
  C  C47  1  0.07467000  0.70798000  0.03376000  1.0
  C  C48  1  0.77631000  0.95362000  0.48572000  1.0
  C  C49  1  0.04638000  0.22369000  0.01429000  1.0
  C  C50  1  0.22369000  0.04638000  0.51429000  1.0
  C  C51  1  0.95362000  0.77631000  0.98571000  1.0
  C  C52  1  0.77532000  0.75659000  0.49776000  1.0
  C  C53  1  0.24342000  0.22468000  0.00224000  1.0
  C  C54  1  0.22468000  0.24341000  0.50224000  1.0
  C  C55  1  0.75658000  0.77532000  0.99776000  1.0
  C  C56  1  0.71156000  0.67914000  0.55622000  1.0
  C  C57  1  0.32086000  0.28844000  0.94378000  1.0
  C  C58  1  0.28844000  0.32086000  0.44379000  1.0
  C  C59  1  0.67914000  0.71156000  0.05621000  1.0
  C  C60  1  0.58880000  0.13944000  0.64553000  1.0
  C  C61  1  0.86056000  0.41120000  0.85447000  1.0
  C  C62  1  0.41120000  0.86056000  0.35447000  1.0
  C  C63  1  0.13944000  0.58880000  0.14553000  1.0
  N  N64  1  0.84918000  0.62899000  0.44821000  1.0
  N  N65  1  0.37101000  0.15082000  0.05179000  1.0
  N  N66  1  0.15082000  0.37101000  0.55179000  1.0
  N  N67  1  0.62899000  0.84918000  0.94821000  1.0
  O  O68  1  0.69024000  0.57733000  0.68998000  1.0
  O  O69  1  0.42266000  0.30976000  0.81001000  1.0
  O  O70  1  0.30975000  0.42267000  0.31002000  1.0
  O  O71  1  0.57733000  0.69024000  0.18998000  1.0
  O  O72  1  0.43223000  0.78342000  0.69375000  1.0
  O  O73  1  0.21657000  0.56777000  0.80625000  1.0
  O  O74  1  0.56776000  0.21658000  0.30625000  1.0
  O  O75  1  0.78343000  0.43224000  0.19375000  1.0
  O  O76  1  0.71057000  0.15159000  0.69056000  1.0
  O  O77  1  0.84841000  0.28943000  0.80944000  1.0
  O  O78  1  0.28943000  0.84841000  0.30944000  1.0
  O  O79  1  0.15159000  0.71057000  0.19056000  1.0
  O  O80  1  0.43517000  0.23749000  0.64155000  1.0
  O  O81  1  0.76251000  0.56482000  0.85845000  1.0
  O  O82  1  0.56483000  0.76250000  0.35845000  1.0
  O  O83  1  0.23749000  0.43518000  0.14155000  1.0
  O  O84  1  0.96614000  0.69083000  0.40823000  1.0
  O  O85  1  0.30918000  0.03386000  0.09178000  1.0
  O  O86  1  0.03386000  0.30917000  0.59177000  1.0
  O  O87  1  0.69083000  0.96614000  0.90823000  1.0
  O  O88  1  0.79430000  0.46094000  0.44843000  1.0
  O  O89  1  0.53907000  0.20570000  0.05157000  1.0
  O  O90  1  0.20570000  0.53906000  0.55157000  1.0
  O  O91  1  0.46094000  0.79431000  0.94843000  1.0
  O  O92  1  0.06144000  0.66892000  0.67790000  1.0
  O  O93  1  0.33108000  0.93856000  0.82210000  1.0
  O  O94  1  0.93856000  0.33108000  0.32210000  1.0
  O  O95  1  0.66892000  0.06145000  0.17790000  1.0
  O  O96  1  0.13099000  0.07958000  0.70761000  1.0
  O  O97  1  0.92042000  0.86901000  0.79239000  1.0
  O  O98  1  0.86900000  0.92042000  0.29239000  1.0
  O  O99  1  0.07958000  0.13099000  0.20761000  1.0
