# generated using pymatgen
data_Zr3H20C44NO18F5
_symmetry_space_group_name_H-M   'P 1'
_cell_length_a   19.06540338
_cell_length_b   19.14676327
_cell_length_c   19.14630000
_cell_angle_alpha   89.70809865
_cell_angle_beta   60.22632039
_cell_angle_gamma   119.77339509
_symmetry_Int_Tables_number   1
_chemical_formula_structural   Zr3H20C44NO18F5
_chemical_formula_sum   'Zr6 H40 C88 N2 O36 F10'
_cell_volume   4963.26176158
_cell_formula_units_Z   2
loop_
 _symmetry_equiv_pos_site_id
 _symmetry_equiv_pos_as_xyz
  1  'x, y, z'
loop_
 _atom_site_type_symbol
 _atom_site_label
 _atom_site_symmetry_multiplicity
 _atom_site_fract_x
 _atom_site_fract_y
 _atom_site_fract_z
 _atom_site_occupancy
  Zr  Zr0  1  0.50104000  0.09315000  0.90680000  1.0
  Zr  Zr1  1  0.49838000  0.90681000  0.09316000  1.0
  Zr  Zr2  1  0.31473000  0.90851000  0.09139000  1.0
  Zr  Zr3  1  0.68471000  0.09143000  0.90847000  1.0
  Zr  Zr4  1  0.49976000  0.09210000  0.09205000  1.0
  Zr  Zr5  1  0.49976000  0.90787000  0.90787000  1.0
  H  H6  1  0.35488000  0.07366000  0.07161000  1.0
  H  H7  1  0.64454000  0.07164000  0.07367000  1.0
  H  H8  1  0.35373000  0.78238000  0.07256000  1.0
  H  H9  1  0.64571000  0.07257000  0.78236000  1.0
  H  H10  1  0.49991000  0.54842000  0.11421000  1.0
  H  H11  1  0.49903000  0.45135000  0.88632000  1.0
  H  H12  1  0.50339000  0.32019000  0.10624000  1.0
  H  H13  1  0.50001000  0.44677000  0.11237000  1.0
  H  H14  1  0.50290000  0.68306000  0.89052000  1.0
  H  H15  1  0.49984000  0.55328000  0.88769000  1.0
  H  H16  1  0.50111000  0.88647000  0.45096000  1.0
  H  H17  1  0.50024000  0.11435000  0.54805000  1.0
  H  H18  1  0.49694000  0.89054000  0.68291000  1.0
  H  H19  1  0.50027000  0.88781000  0.55299000  1.0
  H  H20  1  0.49646000  0.10630000  0.32006000  1.0
  H  H21  1  0.50010000  0.11251000  0.44650000  1.0
  H  H22  1  0.16314000  0.54894000  0.88657000  1.0
  H  H23  1  0.83638000  0.45025000  0.11390000  1.0
  H  H24  1  0.92811000  0.32061000  0.89056000  1.0
  H  H25  1  0.06000000  0.44703000  0.88809000  1.0
  H  H26  1  0.07169000  0.68167000  0.10680000  1.0
  H  H27  1  0.93960000  0.55168000  0.11282000  1.0
  H  H28  1  0.16333000  0.11376000  0.45049000  1.0
  H  H29  1  0.83656000  0.88642000  0.54920000  1.0
  H  H30  1  0.92788000  0.10676000  0.68185000  1.0
  H  H31  1  0.06002000  0.11265000  0.55204000  1.0
  H  H32  1  0.07144000  0.89047000  0.32083000  1.0
  H  H33  1  0.93961000  0.88794000  0.44739000  1.0
  H  H34  1  0.70921000  0.88479000  0.11088000  1.0
  H  H35  1  0.75819000  0.81964000  0.17431000  1.0
  H  H36  1  0.92946000  0.11001000  0.88970000  1.0
  H  H37  1  0.29013000  0.11095000  0.88481000  1.0
  H  H38  1  0.24115000  0.17437000  0.81959000  1.0
  H  H39  1  0.06984000  0.88975000  0.11006000  1.0
  H  H40  1  0.93361000  0.54838000  0.45093000  1.0
  H  H41  1  0.06593000  0.45080000  0.54852000  1.0
  H  H42  1  0.71122000  0.32065000  0.68264000  1.0
  H  H43  1  0.83429000  0.44696000  0.55293000  1.0
  H  H44  1  0.28842000  0.68277000  0.32050000  1.0
  H  H45  1  0.16551000  0.55306000  0.44682000  1.0
  C  C46  1  0.50468000  0.23677000  0.99532000  1.0
  C  C47  1  0.49490000  0.99532000  0.23671000  1.0
  C  C48  1  0.50372000  0.76761000  0.00027000  1.0
  C  C49  1  0.49587000  0.00022000  0.76756000  1.0
  C  C50  1  0.26486000  0.99910000  0.99656000  1.0
  C  C51  1  0.73743000  0.23658000  0.76779000  1.0
  C  C52  1  0.73448000  0.99654000  0.99905000  1.0
  C  C53  1  0.26197000  0.76778000  0.23658000  1.0
  C  C54  1  0.26681000  0.99991000  0.23577000  1.0
  C  C55  1  0.26687000  0.76866000  0.99527000  1.0
  C  C56  1  0.73270000  0.99534000  0.76866000  1.0
  C  C57  1  0.73272000  0.23569000  0.99997000  1.0
  C  C58  1  0.50319000  0.68956000  0.00185000  1.0
  C  C59  1  0.50336000  0.31390000  0.99476000  1.0
  C  C60  1  0.50219000  0.64863000  0.06374000  1.0
  C  C61  1  0.50049000  0.57539000  0.06365000  1.0
  C  C62  1  0.50173000  0.35356000  0.93421000  1.0
  C  C63  1  0.49995000  0.42506000  0.93611000  1.0
  C  C64  1  0.50244000  0.35030000  0.05855000  1.0
  C  C65  1  0.50057000  0.42173000  0.06136000  1.0
  C  C66  1  0.50220000  0.65216000  0.93905000  1.0
  C  C67  1  0.50049000  0.57896000  0.93809000  1.0
  C  C68  1  0.49987000  0.53869000  0.00049000  1.0
  C  C69  1  0.49976000  0.46132000  0.99969000  1.0
  C  C70  1  0.49647000  0.99483000  0.31372000  1.0
  C  C71  1  0.49665000  0.00187000  0.68938000  1.0
  C  C72  1  0.49822000  0.93433000  0.35330000  1.0
  C  C73  1  0.50012000  0.93624000  0.42474000  1.0
  C  C74  1  0.49779000  0.06382000  0.64837000  1.0
  C  C75  1  0.49961000  0.06377000  0.57507000  1.0
  C  C76  1  0.49770000  0.93909000  0.65197000  1.0
  C  C77  1  0.49959000  0.93820000  0.57867000  1.0
  C  C78  1  0.49749000  0.05864000  0.35011000  1.0
  C  C79  1  0.49950000  0.06148000  0.42147000  1.0
  C  C80  1  0.50037000  0.99983000  0.46101000  1.0
  C  C81  1  0.50027000  0.00063000  0.53837000  1.0
  C  C82  1  0.19057000  0.68977000  0.99499000  1.0
  C  C83  1  0.80904000  0.31327000  0.00157000  1.0
  C  C84  1  0.21214000  0.64902000  0.93448000  1.0
  C  C85  1  0.13905000  0.57560000  0.93636000  1.0
  C  C86  1  0.78745000  0.35273000  0.06339000  1.0
  C  C87  1  0.86054000  0.42431000  0.06341000  1.0
  C  C88  1  0.90971000  0.35031000  0.93904000  1.0
  C  C89  1  0.98363000  0.42182000  0.93824000  1.0
  C  C90  1  0.08992000  0.65138000  0.05887000  1.0
  C  C91  1  0.01597000  0.57794000  0.06168000  1.0
  C  C92  1  0.03873000  0.53827000  0.99990000  1.0
  C  C93  1  0.96085000  0.46097000  0.00053000  1.0
  C  C94  1  0.19054000  0.00147000  0.31345000  1.0
  C  C95  1  0.80903000  0.99496000  0.68989000  1.0
  C  C96  1  0.21221000  0.06328000  0.35290000  1.0
  C  C97  1  0.13915000  0.06328000  0.42454000  1.0
  C  C98  1  0.78751000  0.93439000  0.64919000  1.0
  C  C99  1  0.86064000  0.93625000  0.57583000  1.0
  C  C100  1  0.90967000  0.05880000  0.65159000  1.0
  C  C101  1  0.98366000  0.06155000  0.57822000  1.0
  C  C102  1  0.08987000  0.93893000  0.35054000  1.0
  C  C103  1  0.01598000  0.93810000  0.42211000  1.0
  C  C104  1  0.03882000  0.00038000  0.46125000  1.0
  C  C105  1  0.96093000  0.99976000  0.53856000  1.0
  C  C106  1  0.78714000  0.93442000  0.06267000  1.0
  C  C107  1  0.86061000  0.93508000  0.06347000  1.0
  C  C108  1  0.83557000  0.87057000  0.12638000  1.0
  C  C109  1  0.91254000  0.06197000  0.93713000  1.0
  C  C110  1  0.98827000  0.06544000  0.93615000  1.0
  C  C111  1  0.09215000  0.12795000  0.87217000  1.0
  C  C112  1  0.21220000  0.06273000  0.93444000  1.0
  C  C113  1  0.13874000  0.06353000  0.93506000  1.0
  C  C114  1  0.16377000  0.12642000  0.87053000  1.0
  C  C115  1  0.08678000  0.93719000  0.06201000  1.0
  C  C116  1  0.01104000  0.93620000  0.06548000  1.0
  C  C117  1  0.90715000  0.87221000  0.12797000  1.0
  C  C118  1  0.81327000  0.99724000  0.99960000  1.0
  C  C119  1  0.96267000  0.00075000  0.00000000  1.0
  C  C120  1  0.18607000  0.99966000  0.99725000  1.0
  C  C121  1  0.03667000  0.00003000  0.00074000  1.0
  C  C122  1  0.18314000  0.68950000  0.31383000  1.0
  C  C123  1  0.81635000  0.31385000  0.68952000  1.0
  C  C124  1  0.08143000  0.64847000  0.35343000  1.0
  C  C125  1  0.01046000  0.57527000  0.42488000  1.0
  C  C126  1  0.91803000  0.35336000  0.64858000  1.0
  C  C127  1  0.98910000  0.42480000  0.57536000  1.0
  C  C128  1  0.78981000  0.35053000  0.65190000  1.0
  C  C129  1  0.85993000  0.42186000  0.57869000  1.0
  C  C130  1  0.20980000  0.65195000  0.35044000  1.0
  C  C131  1  0.13977000  0.57875000  0.42177000  1.0
  C  C132  1  0.03782000  0.53852000  0.46124000  1.0
  C  C133  1  0.96186000  0.46125000  0.53853000  1.0
  N  N134  1  0.87251000  0.80453000  0.19818000  1.0
  N  N135  1  0.12665000  0.19813000  0.80456000  1.0
  O  O136  1  0.50570000  0.20583000  0.93617000  1.0
  O  O137  1  0.49375000  0.93613000  0.20580000  1.0
  O  O138  1  0.50333000  0.79891000  0.05908000  1.0
  O  O139  1  0.49609000  0.05896000  0.79892000  1.0
  O  O140  1  0.23560000  0.93953000  0.05599000  1.0
  O  O141  1  0.76413000  0.20462000  0.79998000  1.0
  O  O142  1  0.76376000  0.05595000  0.93945000  1.0
  O  O143  1  0.23523000  0.79991000  0.20461000  1.0
  O  O144  1  0.35726000  0.05795000  0.20430000  1.0
  O  O145  1  0.35727000  0.80026000  0.93705000  1.0
  O  O146  1  0.64229000  0.93707000  0.80029000  1.0
  O  O147  1  0.64229000  0.20433000  0.05792000  1.0
  O  O148  1  0.23614000  0.79829000  0.05472000  1.0
  O  O149  1  0.76338000  0.05489000  0.79819000  1.0
  O  O150  1  0.76340000  0.20534000  0.94128000  1.0
  O  O151  1  0.23609000  0.94124000  0.20541000  1.0
  O  O152  1  0.35419000  0.05866000  0.93782000  1.0
  O  O153  1  0.35125000  0.79641000  0.20710000  1.0
  O  O154  1  0.64517000  0.93782000  0.05863000  1.0
  O  O155  1  0.64816000  0.20707000  0.79636000  1.0
  O  O156  1  0.49660000  0.94066000  0.79676000  1.0
  O  O157  1  0.50324000  0.20645000  0.05594000  1.0
  O  O158  1  0.49628000  0.05592000  0.20646000  1.0
  O  O159  1  0.50295000  0.79677000  0.94072000  1.0
  O  O160  1  0.60444000  0.05200000  0.84423000  1.0
  O  O161  1  0.39500000  0.84425000  0.05199000  1.0
  O  O162  1  0.60358000  0.05092000  0.05251000  1.0
  O  O163  1  0.39585000  0.05252000  0.05089000  1.0
  O  O164  1  0.42260000  0.96164000  0.11447000  1.0
  O  O165  1  0.57685000  0.11450000  0.96161000  1.0
  O  O166  1  0.57616000  0.96126000  0.96244000  1.0
  O  O167  1  0.42331000  0.96245000  0.96123000  1.0
  O  O168  1  0.91717000  0.82441000  0.23261000  1.0
  O  O169  1  0.79954000  0.73210000  0.21953000  1.0
  O  O170  1  0.08214000  0.23270000  0.82463000  1.0
  O  O171  1  0.19936000  0.21931000  0.73201000  1.0
  F  F172  1  0.50287000  0.67907000  0.12744000  1.0
  F  F173  1  0.50161000  0.32346000  0.87020000  1.0
  F  F174  1  0.49832000  0.87032000  0.32317000  1.0
  F  F175  1  0.49709000  0.12751000  0.67881000  1.0
  F  F176  1  0.30665000  0.67986000  0.87034000  1.0
  F  F177  1  0.69290000  0.32234000  0.12705000  1.0
  F  F178  1  0.30676000  0.12691000  0.32248000  1.0
  F  F179  1  0.69300000  0.87023000  0.68003000  1.0
  F  F180  1  0.04724000  0.67880000  0.32331000  1.0
  F  F181  1  0.95211000  0.32316000  0.67898000  1.0
