# generated using pymatgen
data_Cd5H52C60N12(ClO6)2
_symmetry_space_group_name_H-M   'P 1'
_cell_length_a   9.44098000
_cell_length_b   15.82458566
_cell_length_c   27.99566424
_cell_angle_alpha   96.45557882
_cell_angle_beta   99.68122371
_cell_angle_gamma   107.33196860
_symmetry_Int_Tables_number   1
_chemical_formula_structural   Cd5H52C60N12(ClO6)2
_chemical_formula_sum   'Cd10 H104 C120 N24 Cl4 O24'
_cell_volume   3876.61915492
_cell_formula_units_Z   2
loop_
 _symmetry_equiv_pos_site_id
 _symmetry_equiv_pos_as_xyz
  1  'x, y, z'
loop_
 _atom_site_type_symbol
 _atom_site_label
 _atom_site_symmetry_multiplicity
 _atom_site_fract_x
 _atom_site_fract_y
 _atom_site_fract_z
 _atom_site_occupancy
  Cd  Cd0  1  0.00000000  0.00000000  0.00000000  1.0
  Cd  Cd1  1  0.50000000  0.50000000  0.50000000  1.0
  Cd  Cd2  1  0.86874000  0.16480000  0.92866000  1.0
  Cd  Cd3  1  0.27520000  0.33504000  0.57135000  1.0
  Cd  Cd4  1  0.13126000  0.83520000  0.07134000  1.0
  Cd  Cd5  1  0.72478000  0.66496000  0.42864000  1.0
  Cd  Cd6  1  0.98607000  0.25323000  0.82895000  1.0
  Cd  Cd7  1  0.40406000  0.24665000  0.67105000  1.0
  Cd  Cd8  1  0.01393000  0.74677000  0.17105000  1.0
  Cd  Cd9  1  0.59594000  0.75335000  0.32895000  1.0
  H  H10  1  0.24931000  0.89235000  0.85556000  1.0
  H  H11  1  0.00118000  0.60770000  0.64422000  1.0
  H  H12  1  0.75069000  0.10766000  0.14444000  1.0
  H  H13  1  0.99882000  0.39230000  0.35578000  1.0
  H  H14  1  0.41727000  0.01522000  0.92598000  1.0
  H  H15  1  0.97566000  0.48483000  0.57372000  1.0
  H  H16  1  0.58272000  0.98478000  0.07402000  1.0
  H  H17  1  0.02434000  0.51517000  0.42628000  1.0
  H  H18  1  0.33471000  0.04050000  0.97618000  1.0
  H  H19  1  0.81758000  0.45962000  0.52361000  1.0
  H  H20  1  0.66528000  0.95950000  0.02382000  1.0
  H  H21  1  0.18243000  0.54038000  0.47639000  1.0
  H  H22  1  0.01218000  0.72884000  0.80042000  1.0
  H  H23  1  0.98264000  0.77113000  0.69950000  1.0
  H  H24  1  0.98783000  0.27117000  0.19958000  1.0
  H  H25  1  0.01736000  0.22887000  0.30050000  1.0
  H  H26  1  0.40024000  0.16701000  0.92852000  1.0
  H  H27  1  0.80462000  0.33308000  0.57121000  1.0
  H  H28  1  0.59977000  0.83300000  0.07149000  1.0
  H  H29  1  0.19538000  0.66692000  0.42880000  1.0
  H  H30  1  0.27638000  0.09866000  0.87477000  1.0
  H  H31  1  0.80292000  0.40134000  0.62502000  1.0
  H  H32  1  0.72363000  0.90134000  0.12524000  1.0
  H  H33  1  0.19706000  0.59866000  0.37498000  1.0
  H  H34  1  0.05290000  0.42892000  0.08348000  1.0
  H  H35  1  0.04073000  0.07068000  0.41659000  1.0
  H  H36  1  0.94710000  0.57108000  0.91652000  1.0
  H  H37  1  0.95928000  0.92931000  0.58341000  1.0
  H  H38  1  0.06256000  0.46758000  0.82002000  1.0
  H  H39  1  0.27541000  0.03236000  0.68001000  1.0
  H  H40  1  0.93742000  0.53242000  0.17998000  1.0
  H  H41  1  0.72459000  0.96764000  0.31999000  1.0
  H  H42  1  0.06187000  0.60653000  0.78553000  1.0
  H  H43  1  0.16985000  0.89331000  0.71435000  1.0
  H  H44  1  0.93811000  0.39347000  0.21447000  1.0
  H  H45  1  0.83016000  0.10669000  0.28565000  1.0
  H  H46  1  0.76582000  0.80085000  0.93938000  1.0
  H  H47  1  0.52527000  0.69935000  0.56076000  1.0
  H  H48  1  0.23416000  0.19915000  0.06061000  1.0
  H  H49  1  0.47473000  0.30065000  0.43925000  1.0
  H  H50  1  0.75882000  0.62847000  0.80648000  1.0
  H  H51  1  0.82370000  0.87163000  0.69359000  1.0
  H  H52  1  0.24118000  0.37153000  0.19352000  1.0
  H  H53  1  0.17629000  0.12836000  0.30641000  1.0
  H  H54  1  0.63848000  0.66271000  0.87479000  1.0
  H  H55  1  0.60077000  0.83749000  0.62537000  1.0
  H  H56  1  0.36150000  0.33729000  0.12520000  1.0
  H  H57  1  0.39922000  0.16250000  0.37463000  1.0
  H  H58  1  0.62854000  0.46524000  0.68599000  1.0
  H  H59  1  0.97716000  0.03465000  0.81396000  1.0
  H  H60  1  0.37146000  0.53477000  0.31401000  1.0
  H  H61  1  0.02286000  0.96535000  0.18605000  1.0
  H  H62  1  0.84582000  0.60598000  0.72082000  1.0
  H  H63  1  0.01878000  0.89386000  0.77903000  1.0
  H  H64  1  0.15417000  0.39402000  0.27918000  1.0
  H  H65  1  0.98124000  0.10614000  0.22097000  1.0
  H  H66  1  0.52694000  0.12686000  0.71640000  1.0
  H  H67  1  0.18376000  0.37314000  0.78367000  1.0
  H  H68  1  0.47306000  0.87314000  0.28360000  1.0
  H  H69  1  0.81624000  0.62686000  0.21633000  1.0
  H  H70  1  0.69818000  0.11937000  0.74949000  1.0
  H  H71  1  0.32913000  0.38055000  0.75042000  1.0
  H  H72  1  0.30182000  0.88063000  0.25051000  1.0
  H  H73  1  0.67087000  0.61945000  0.24958000  1.0
  H  H74  1  0.19103000  0.30183000  0.99266000  1.0
  H  H75  1  0.39663000  0.19782000  0.50739000  1.0
  H  H76  1  0.80896000  0.69817000  0.00734000  1.0
  H  H77  1  0.60337000  0.80217000  0.49261000  1.0
  H  H78  1  0.24923000  0.39609000  0.03999000  1.0
  H  H79  1  0.31355000  0.10359000  0.46001000  1.0
  H  H80  1  0.75076000  0.60391000  0.96001000  1.0
  H  H81  1  0.68646000  0.89640000  0.53999000  1.0
  H  H82  1  0.11444000  0.47406000  0.97642000  1.0
  H  H83  1  0.16413000  0.02564000  0.52362000  1.0
  H  H84  1  0.88557000  0.52595000  0.02358000  1.0
  H  H85  1  0.83587000  0.97435000  0.47638000  1.0
  H  H86  1  0.29311000  0.46425000  0.97091000  1.0
  H  H87  1  0.35799000  0.03524000  0.52906000  1.0
  H  H88  1  0.70690000  0.53576000  0.02910000  1.0
  H  H89  1  0.64202000  0.96475000  0.47095000  1.0
  H  H90  1  0.60709000  0.12660000  0.99223000  1.0
  H  H91  1  0.98900000  0.37346000  0.50765000  1.0
  H  H92  1  0.39291000  0.87341000  0.00777000  1.0
  H  H93  1  0.01099000  0.62652000  0.49234000  1.0
  H  H94  1  0.44460000  0.14766000  0.05197000  1.0
  H  H95  1  0.74615000  0.35261000  0.44789000  1.0
  H  H96  1  0.55540000  0.85234000  0.94803000  1.0
  H  H97  1  0.25387000  0.64738000  0.55211000  1.0
  H  H98  1  0.53237000  0.28042000  0.11776000  1.0
  H  H99  1  0.63502000  0.21967000  0.38222000  1.0
  H  H100  1  0.46765000  0.71959000  0.88225000  1.0
  H  H101  1  0.36498000  0.78032000  0.61777000  1.0
  H  H102  1  0.78307000  0.39948000  0.12662000  1.0
  H  H103  1  0.75750000  0.10035000  0.37348000  1.0
  H  H104  1  0.21693000  0.60052000  0.87339000  1.0
  H  H105  1  0.24249000  0.89964000  0.62651000  1.0
  H  H106  1  0.46566000  0.06653000  0.78783000  1.0
  H  H107  1  0.11092000  0.43336000  0.71221000  1.0
  H  H108  1  0.53434000  0.93347000  0.21217000  1.0
  H  H109  1  0.88909000  0.56665000  0.28779000  1.0
  H  H110  1  0.47151000  0.17881000  0.80124000  1.0
  H  H111  1  0.99122000  0.32109000  0.69893000  1.0
  H  H112  1  0.52849000  0.82119000  0.19876000  1.0
  H  H113  1  0.00877000  0.67891000  0.30107000  1.0
  C  C114  1  0.96030000  0.84130000  0.90573000  1.0
  C  C115  1  0.71295000  0.65882000  0.59427000  1.0
  C  C116  1  0.03969000  0.15870000  0.09426000  1.0
  C  C117  1  0.28705000  0.34118000  0.40573000  1.0
  C  C118  1  0.02939000  0.81971000  0.86697000  1.0
  C  C119  1  0.84235000  0.68034000  0.63298000  1.0
  C  C120  1  0.97061000  0.18029000  0.13303000  1.0
  C  C121  1  0.15765000  0.31966000  0.36701000  1.0
  C  C122  1  0.18196000  0.94548000  0.91730000  1.0
  C  C123  1  0.81889000  0.55463000  0.58256000  1.0
  C  C124  1  0.81803000  0.05452000  0.08270000  1.0
  C  C125  1  0.18111000  0.44537000  0.41744000  1.0
  C  C126  1  0.31637000  0.02758000  0.93591000  1.0
  C  C127  1  0.85249000  0.47252000  0.56387000  1.0
  C  C128  1  0.68362000  0.97242000  0.06409000  1.0
  C  C129  1  0.14750000  0.52748000  0.43612000  1.0
  C  C130  1  0.95873000  0.74428000  0.83034000  1.0
  C  C131  1  0.88378000  0.75574000  0.66965000  1.0
  C  C132  1  0.04126000  0.25572000  0.16966000  1.0
  C  C133  1  0.11621000  0.24425000  0.33035000  1.0
  C  C134  1  0.29480000  0.10994000  0.91504000  1.0
  C  C135  1  0.76963000  0.39011000  0.58476000  1.0
  C  C136  1  0.70520000  0.89007000  0.08496000  1.0
  C  C137  1  0.23036000  0.60989000  0.41524000  1.0
  C  C138  1  0.65553000  0.14736000  0.84278000  1.0
  C  C139  1  0.16496000  0.35242000  0.65723000  1.0
  C  C140  1  0.34447000  0.85264000  0.15722000  1.0
  C  C141  1  0.83504000  0.64758000  0.34277000  1.0
  C  C142  1  0.01366000  0.32960000  0.02084000  1.0
  C  C143  1  0.16348000  0.17004000  0.47920000  1.0
  C  C144  1  0.98635000  0.67041000  0.97916000  1.0
  C  C145  1  0.83652000  0.82995000  0.52080000  1.0
  C  C146  1  0.78515000  0.25084000  0.02669000  1.0
  C  C147  1  0.00807000  0.24895000  0.47333000  1.0
  C  C148  1  0.21485000  0.74916000  0.97331000  1.0
  C  C149  1  0.99194000  0.75104000  0.52667000  1.0
  C  C150  1  0.83468000  0.32677000  0.06467000  1.0
  C  C151  1  0.94367000  0.17299000  0.43539000  1.0
  C  C152  1  0.16533000  0.67324000  0.93533000  1.0
  C  C153  1  0.05631000  0.82699000  0.56460000  1.0
  C  C154  1  0.84757000  0.38898000  0.77136000  1.0
  C  C155  1  0.18787000  0.11101000  0.72877000  1.0
  C  C156  1  0.15242000  0.61102000  0.22864000  1.0
  C  C157  1  0.81215000  0.88900000  0.27124000  1.0
  C  C158  1  0.96954000  0.46764000  0.79099000  1.0
  C  C159  1  0.21141000  0.03229000  0.70908000  1.0
  C  C160  1  0.03044000  0.53235000  0.20901000  1.0
  C  C161  1  0.78860000  0.96772000  0.29092000  1.0
  C  C162  1  0.96762000  0.54443000  0.77131000  1.0
  C  C163  1  0.15220000  0.95546000  0.72869000  1.0
  C  C164  1  0.03236000  0.45557000  0.22869000  1.0
  C  C165  1  0.84781000  0.04454000  0.27131000  1.0
  C  C166  1  0.16453000  0.13597000  0.93027000  1.0
  C  C167  1  0.59816000  0.36406000  0.56963000  1.0
  C  C168  1  0.83546000  0.86403000  0.06973000  1.0
  C  C169  1  0.40183000  0.63594000  0.43036000  1.0
  C  C170  1  0.81779000  0.78523000  0.90910000  1.0
  C  C171  1  0.62317000  0.71495000  0.59099000  1.0
  C  C172  1  0.18220000  0.21477000  0.09090000  1.0
  C  C173  1  0.37682000  0.28505000  0.40901000  1.0
  C  C174  1  0.81686000  0.68877000  0.83406000  1.0
  C  C175  1  0.79371000  0.81130000  0.66601000  1.0
  C  C176  1  0.18314000  0.31123000  0.16594000  1.0
  C  C177  1  0.20628000  0.18869000  0.33399000  1.0
  C  C178  1  0.74850000  0.70884000  0.87296000  1.0
  C  C179  1  0.66643000  0.79131000  0.62716000  1.0
  C  C180  1  0.25149000  0.29116000  0.12703000  1.0
  C  C181  1  0.33358000  0.20869000  0.37285000  1.0
  C  C182  1  0.72291000  0.46583000  0.71464000  1.0
  C  C183  1  0.04265000  0.03410000  0.78539000  1.0
  C  C184  1  0.27708000  0.53417000  0.28536000  1.0
  C  C185  1  0.95737000  0.96591000  0.21461000  1.0
  C  C186  1  0.84585000  0.54379000  0.73415000  1.0
  C  C187  1  0.06800000  0.95611000  0.76582000  1.0
  C  C188  1  0.15416000  0.45622000  0.26586000  1.0
  C  C189  1  0.93203000  0.04389000  0.23419000  1.0
  C  C190  1  0.61433000  0.15483000  0.75040000  1.0
  C  C191  1  0.20901000  0.34512000  0.74963000  1.0
  C  C192  1  0.38566000  0.84517000  0.24960000  1.0
  C  C193  1  0.79099000  0.65488000  0.25037000  1.0
  C  C194  1  0.68875000  0.25254000  0.75074000  1.0
  C  C195  1  0.18556000  0.24741000  0.74930000  1.0
  C  C196  1  0.31125000  0.74746000  0.24926000  1.0
  C  C197  1  0.81443000  0.75259000  0.25070000  1.0
  C  C198  1  0.16299000  0.36141000  0.00638000  1.0
  C  C199  1  0.29545000  0.13822000  0.49363000  1.0
  C  C200  1  0.83701000  0.63860000  0.99362000  1.0
  C  C201  1  0.70455000  0.86177000  0.50637000  1.0
  C  C202  1  0.17367000  0.42558000  0.96823000  1.0
  C  C203  1  0.28002000  0.07403000  0.53178000  1.0
  C  C204  1  0.82633000  0.57442000  0.03177000  1.0
  C  C205  1  0.71998000  0.92596000  0.46823000  1.0
  C  C206  1  0.10713000  0.37601000  0.91557000  1.0
  C  C207  1  0.31573000  0.12363000  0.58444000  1.0
  C  C208  1  0.89289000  0.62400000  0.08443000  1.0
  C  C209  1  0.68426000  0.87636000  0.41556000  1.0
  C  C210  1  0.64347000  0.18546000  0.02113000  1.0
  C  C211  1  0.93759000  0.31454000  0.47879000  1.0
  C  C212  1  0.35653000  0.81454000  0.97887000  1.0
  C  C213  1  0.06240000  0.68545000  0.52120000  1.0
  C  C214  1  0.55461000  0.19800000  0.05451000  1.0
  C  C215  1  0.80308000  0.30213000  0.44538000  1.0
  C  C216  1  0.44539000  0.80200000  0.94549000  1.0
  C  C217  1  0.19694000  0.69786000  0.55462000  1.0
  C  C218  1  0.60523000  0.27388000  0.09223000  1.0
  C  C219  1  0.73986000  0.22614000  0.40775000  1.0
  C  C220  1  0.39477000  0.72612000  0.90777000  1.0
  C  C221  1  0.26016000  0.77385000  0.59225000  1.0
  C  C222  1  0.74559000  0.34025000  0.09793000  1.0
  C  C223  1  0.80794000  0.15960000  0.40214000  1.0
  C  C224  1  0.25441000  0.65975000  0.90207000  1.0
  C  C225  1  0.19206000  0.84039000  0.59785000  1.0
  C  C226  1  0.72590000  0.38778000  0.73330000  1.0
  C  C227  1  0.10529000  0.11220000  0.76680000  1.0
  C  C228  1  0.27409000  0.61222000  0.26670000  1.0
  C  C229  1  0.89472000  0.88780000  0.23320000  1.0
  C  C230  1  0.54250000  0.13654000  0.79523000  1.0
  C  C231  1  0.11042000  0.36334000  0.70483000  1.0
  C  C232  1  0.45750000  0.86346000  0.20477000  1.0
  C  C233  1  0.88958000  0.63666000  0.29517000  1.0
  N  N234  1  0.05809000  0.92001000  0.93606000  1.0
  N  N235  1  0.70172000  0.58013000  0.56389000  1.0
  N  N236  1  0.94191000  0.07999000  0.06394000  1.0
  N  N237  1  0.29828000  0.41987000  0.43611000  1.0
  N  N238  1  0.16843000  0.88678000  0.87577000  1.0
  N  N239  1  0.90555000  0.61325000  0.62410000  1.0
  N  N240  1  0.83157000  0.11322000  0.12423000  1.0
  N  N241  1  0.09445000  0.38676000  0.37589000  1.0
  N  N242  1  0.89860000  0.25530000  0.00035000  1.0
  N  N243  1  0.14326000  0.24441000  0.49967000  1.0
  N  N244  1  0.10140000  0.74471000  0.99965000  1.0
  N  N245  1  0.85673000  0.75557000  0.50033000  1.0
  N  N246  1  0.62709000  0.30036000  0.72118000  1.0
  N  N247  1  0.10570000  0.19960000  0.77888000  1.0
  N  N248  1  0.37290000  0.69964000  0.27882000  1.0
  N  N249  1  0.89431000  0.80040000  0.22113000  1.0
  N  N250  1  0.82116000  0.30282000  0.78141000  1.0
  N  N251  1  0.23730000  0.19713000  0.71867000  1.0
  N  N252  1  0.17883000  0.69718000  0.21859000  1.0
  N  N253  1  0.76269000  0.80287000  0.28133000  1.0
  N  N254  1  0.97860000  0.37500000  0.05945000  1.0
  N  N255  1  0.04443000  0.12464000  0.44062000  1.0
  N  N256  1  0.02141000  0.62501000  0.94055000  1.0
  N  N257  1  0.95557000  0.87534000  0.55938000  1.0
  Cl  Cl258  1  0.75017000  0.00280000  0.93976000  1.0
  Cl  Cl259  1  0.30750000  0.49707000  0.56031000  1.0
  Cl  Cl260  1  0.24982000  0.99720000  0.06024000  1.0
  Cl  Cl261  1  0.69250000  0.50292000  0.43969000  1.0
  O  O262  1  0.78357000  0.13502000  0.83989000  1.0
  O  O263  1  0.30816000  0.36461000  0.66006000  1.0
  O  O264  1  0.21643000  0.86498000  0.16011000  1.0
  O  O265  1  0.69183000  0.63538000  0.33994000  1.0
  O  O266  1  0.14245000  0.13155000  0.97379000  1.0
  O  O267  1  0.53692000  0.36834000  0.52612000  1.0
  O  O268  1  0.85754000  0.86845000  0.02621000  1.0
  O  O269  1  0.46308000  0.63166000  0.47388000  1.0
  O  O270  1  0.62191000  0.16485000  0.88367000  1.0
  O  O271  1  0.07301000  0.33508000  0.61637000  1.0
  O  O272  1  0.37810000  0.83516000  0.11633000  1.0
  O  O273  1  0.92699000  0.66492000  0.38363000  1.0
  O  O274  1  0.97299000  0.31791000  0.90660000  1.0
  O  O275  1  0.24917000  0.18206000  0.59341000  1.0
  O  O276  1  0.02704000  0.68209000  0.09340000  1.0
  O  O277  1  0.75080000  0.81793000  0.40658000  1.0
  O  O278  1  0.18399000  0.39132000  0.88281000  1.0
  O  O279  1  0.40959000  0.10803000  0.61720000  1.0
  O  O280  1  0.81603000  0.60869000  0.11719000  1.0
  O  O281  1  0.59040000  0.89197000  0.38280000  1.0
  O  O282  1  0.08074000  0.16192000  0.89843000  1.0
  O  O283  1  0.52041000  0.33819000  0.60153000  1.0
  O  O284  1  0.91927000  0.83808000  0.10157000  1.0
  O  O285  1  0.47958000  0.66181000  0.39846000  1.0
