# generated using pymatgen
data_ZnH12C12(NO)4
_symmetry_space_group_name_H-M   'P 1'
_cell_length_a   6.84898000
_cell_length_b   7.14495000
_cell_length_c   14.06890000
_cell_angle_alpha   99.65010000
_cell_angle_beta   92.58640000
_cell_angle_gamma   93.13760000
_symmetry_Int_Tables_number   1
_chemical_formula_structural   ZnH12C12(NO)4
_chemical_formula_sum   'Zn2 H24 C24 N8 O8'
_cell_volume   676.67902351
_cell_formula_units_Z   2
loop_
 _symmetry_equiv_pos_site_id
 _symmetry_equiv_pos_as_xyz
  1  'x, y, z'
loop_
 _atom_site_type_symbol
 _atom_site_label
 _atom_site_symmetry_multiplicity
 _atom_site_fract_x
 _atom_site_fract_y
 _atom_site_fract_z
 _atom_site_occupancy
  Zn  Zn0  1  0.28031000  0.68552000  0.74792000  1.0
  Zn  Zn1  1  0.71969000  0.31448000  0.25208000  1.0
  H  H2  1  0.90848000  0.89048000  0.74435000  1.0
  H  H3  1  0.09151000  0.10952000  0.25565000  1.0
  H  H4  1  0.76681000  0.17419000  0.83963000  1.0
  H  H5  1  0.23319000  0.82581000  0.16037000  1.0
  H  H6  1  0.29837000  0.25486000  0.02311000  1.0
  H  H7  1  0.70163000  0.74514000  0.97689000  1.0
  H  H8  1  0.41911000  0.97267000  0.91944000  1.0
  H  H9  1  0.58089000  0.02733000  0.08056000  1.0
  H  H10  1  0.93494000  0.38298000  0.07573000  1.0
  H  H11  1  0.06506000  0.61702000  0.92427000  1.0
  H  H12  1  0.78641000  0.42018000  0.97489000  1.0
  H  H13  1  0.21359000  0.57982000  0.02511000  1.0
  H  H14  1  0.54367000  0.52193000  0.59795000  1.0
  H  H15  1  0.45634000  0.47807000  0.40205000  1.0
  H  H16  1  0.78018000  0.63389000  0.48666000  1.0
  H  H17  1  0.21983000  0.36611000  0.51335000  1.0
  H  H18  1  0.68067000  0.20967000  0.61884000  1.0
  H  H19  1  0.31932000  0.79033000  0.38116000  1.0
  H  H20  1  0.44290000  0.07622000  0.72051000  1.0
  H  H21  1  0.55710000  0.92378000  0.27948000  1.0
  H  H22  1  0.87084000  0.15451000  0.47293000  1.0
  H  H23  1  0.12916000  0.84549000  0.52707000  1.0
  H  H24  1  0.87843000  0.92063000  0.40609000  1.0
  H  H25  1  0.12158000  0.07937000  0.59391000  1.0
  C  C26  1  0.98964000  0.97593000  0.80658000  1.0
  C  C27  1  0.01036000  0.02407000  0.19342000  1.0
  C  C28  1  0.91104000  0.13214000  0.86040000  1.0
  C  C29  1  0.08896000  0.86786000  0.13960000  1.0
  C  C30  1  0.01899000  0.23783000  0.94046000  1.0
  C  C31  1  0.98101000  0.76217000  0.05954000  1.0
  C  C32  1  0.20555000  0.17901000  0.96212000  1.0
  C  C33  1  0.79444000  0.82099000  0.03788000  1.0
  C  C34  1  0.27494000  0.02223000  0.90457000  1.0
  C  C35  1  0.72505000  0.97777000  0.09543000  1.0
  C  C36  1  0.93786000  0.40670000  0.00062000  1.0
  C  C37  1  0.06214000  0.59330000  0.99938000  1.0
  C  C38  1  0.57622000  0.67302000  0.59879000  1.0
  C  C39  1  0.42379000  0.32698000  0.40121000  1.0
  C  C40  1  0.70745000  0.73683000  0.53716000  1.0
  C  C41  1  0.29256000  0.26318000  0.46284000  1.0
  C  C42  1  0.74796000  0.93273000  0.54211000  1.0
  C  C43  1  0.25205000  0.06726000  0.45789000  1.0
  C  C44  1  0.65261000  0.05595000  0.61034000  1.0
  C  C45  1  0.34739000  0.94405000  0.38965000  1.0
  C  C46  1  0.52120000  0.98148000  0.66878000  1.0
  C  C47  1  0.47880000  0.01852000  0.33122000  1.0
  C  C48  1  0.89457000  0.00611000  0.47907000  1.0
  C  C49  1  0.10543000  0.99390000  0.52093000  1.0
  N  N50  1  0.49558000  0.44765000  0.82985000  1.0
  N  N51  1  0.50442000  0.55235000  0.17015000  1.0
  N  N52  1  0.94644000  0.47665000  0.67112000  1.0
  N  N53  1  0.05356000  0.52335000  0.32888000  1.0
  N  N54  1  0.48320000  0.79285000  0.66359000  1.0
  N  N55  1  0.51680000  0.20715000  0.33641000  1.0
  N  N56  1  0.16955000  0.92100000  0.82773000  1.0
  N  N57  1  0.83045000  0.07900000  0.17226000  1.0
  O  O58  1  0.41285000  0.39280000  0.74710000  1.0
  O  O59  1  0.58715000  0.60720000  0.25291000  1.0
  O  O60  1  0.46349000  0.61942000  0.86549000  1.0
  O  O61  1  0.53650000  0.38058000  0.13451000  1.0
  O  O62  1  0.96089000  0.49484000  0.76089000  1.0
  O  O63  1  0.03911000  0.50516000  0.23911000  1.0
  O  O64  1  0.08565000  0.56730000  0.63442000  1.0
  O  O65  1  0.91435000  0.43270000  0.36558000  1.0
