# generated using pymatgen
data_SmH20C18N2O11
_symmetry_space_group_name_H-M   'P 1'
_cell_length_a   10.56500000
_cell_length_b   11.03970000
_cell_length_c   12.73960000
_cell_angle_alpha   103.97600000
_cell_angle_beta   109.61200000
_cell_angle_gamma   96.81450000
_symmetry_Int_Tables_number   1
_chemical_formula_structural   SmH20C18N2O11
_chemical_formula_sum   'Sm2 H40 C36 N4 O22'
_cell_volume   1325.42606320
_cell_formula_units_Z   2
loop_
 _symmetry_equiv_pos_site_id
 _symmetry_equiv_pos_as_xyz
  1  'x, y, z'
loop_
 _atom_site_type_symbol
 _atom_site_label
 _atom_site_symmetry_multiplicity
 _atom_site_fract_x
 _atom_site_fract_y
 _atom_site_fract_z
 _atom_site_occupancy
  Sm  Sm0  1  0.10064000  0.54569000  0.68116000  1.0
  Sm  Sm1  1  0.89936000  0.45431000  0.31884000  1.0
  H  H2  1  0.92666000  0.14013000  0.30118000  1.0
  H  H3  1  0.07334000  0.85987000  0.69882000  1.0
  H  H4  1  0.23564000  0.39005000  0.26237000  1.0
  H  H5  1  0.76436000  0.60995000  0.73764000  1.0
  H  H6  1  0.17833000  0.89947000  0.93454000  1.0
  H  H7  1  0.82167000  0.10053000  0.06546000  1.0
  H  H8  1  0.00699000  0.16277000  0.67541000  1.0
  H  H9  1  0.99300000  0.83723000  0.32459000  1.0
  H  H10  1  0.40167000  0.57304000  0.65014000  1.0
  H  H11  1  0.59833000  0.42696000  0.34986000  1.0
  H  H12  1  0.56092000  0.82206000  0.87733000  1.0
  H  H13  1  0.43908000  0.17794000  0.12267000  1.0
  H  H14  1  0.45527000  0.51760000  0.82772000  1.0
  H  H15  1  0.54473000  0.48240000  0.17228000  1.0
  H  H16  1  0.63738000  0.45671000  0.91275000  1.0
  H  H17  1  0.36262000  0.54329000  0.08725000  1.0
  H  H18  1  0.64145000  0.29232000  0.86328000  1.0
  H  H19  1  0.35855000  0.70768000  0.13672000  1.0
  H  H20  1  0.60489000  0.34977000  0.99080000  1.0
  H  H21  1  0.39511000  0.65023000  0.00920000  1.0
  H  H22  1  0.25972000  0.19514000  0.74139000  1.0
  H  H23  1  0.74027000  0.80487000  0.25861000  1.0
  H  H24  1  0.36754000  0.17419000  0.87574000  1.0
  H  H25  1  0.63246000  0.82581000  0.12426000  1.0
  H  H26  1  0.41135000  0.13393000  0.75011000  1.0
  H  H27  1  0.58864000  0.86607000  0.24989000  1.0
  H  H28  1  0.87996000  0.35589000  0.74890000  1.0
  H  H29  1  0.12004000  0.64411000  0.25110000  1.0
  H  H30  1  0.79573000  0.18637000  0.77741000  1.0
  H  H31  1  0.20427000  0.81363000  0.22259000  1.0
  H  H32  1  0.84081000  0.20025000  0.92949000  1.0
  H  H33  1  0.15919000  0.79975000  0.07051000  1.0
  H  H34  1  0.91729000  0.10222000  0.84570000  1.0
  H  H35  1  0.08271000  0.89778000  0.15430000  1.0
  H  H36  1  0.19236000  0.39391000  0.99588000  1.0
  H  H37  1  0.80764000  0.60609000  0.00411000  1.0
  H  H38  1  0.15021000  0.22741000  0.98457000  1.0
  H  H39  1  0.84979000  0.77259000  0.01543000  1.0
  H  H40  1  0.08857000  0.34185000  0.06960000  1.0
  H  H41  1  0.91143000  0.65815000  0.93040000  1.0
  C  C42  1  0.97059000  0.02816000  0.39246000  1.0
  C  C43  1  0.02941000  0.97184000  0.60754000  1.0
  C  C44  1  0.97392000  0.12021000  0.49347000  1.0
  C  C45  1  0.02609000  0.87979000  0.50653000  1.0
  C  C46  1  0.00319000  0.09046000  0.59866000  1.0
  C  C47  1  0.99681000  0.90954000  0.40134000  1.0
  C  C48  1  0.95164000  0.24986000  0.49122000  1.0
  C  C49  1  0.04836000  0.75014000  0.50878000  1.0
  C  C50  1  0.41291000  0.44359000  0.38096000  1.0
  C  C51  1  0.58709000  0.55641000  0.61904000  1.0
  C  C52  1  0.35694000  0.48259000  0.46769000  1.0
  C  C53  1  0.64306000  0.51741000  0.53231000  1.0
  C  C54  1  0.44473000  0.53931000  0.58480000  1.0
  C  C55  1  0.55527000  0.46069000  0.41520000  1.0
  C  C56  1  0.20632000  0.46358000  0.43517000  1.0
  C  C57  1  0.79368000  0.53642000  0.56483000  1.0
  C  C58  1  0.36333000  0.99042000  0.99630000  1.0
  C  C59  1  0.63667000  0.00958000  0.00370000  1.0
  C  C60  1  0.39994000  0.88941000  0.92741000  1.0
  C  C61  1  0.60006000  0.11059000  0.07259000  1.0
  C  C62  1  0.53511000  0.90033000  0.93136000  1.0
  C  C63  1  0.46489000  0.09967000  0.06864000  1.0
  C  C64  1  0.29673000  0.77000000  0.85266000  1.0
  C  C65  1  0.70327000  0.23000000  0.14734000  1.0
  C  C66  1  0.38472000  0.42301000  0.79676000  1.0
  C  C67  1  0.61528000  0.57700000  0.20324000  1.0
  C  C68  1  0.58986000  0.35910000  0.90373000  1.0
  C  C69  1  0.41014000  0.64090000  0.09627000  1.0
  C  C70  1  0.36581000  0.20096000  0.79768000  1.0
  C  C71  1  0.63419000  0.79904000  0.20233000  1.0
  C  C72  1  0.97869000  0.38128000  0.82438000  1.0
  C  C73  1  0.02131000  0.61872000  0.17562000  1.0
  C  C74  1  0.87948000  0.19112000  0.85859000  1.0
  C  C75  1  0.12052000  0.80888000  0.14141000  1.0
  C  C76  1  0.11330000  0.31689000  0.99092000  1.0
  C  C77  1  0.88670000  0.68311000  0.00908000  1.0
  N  N78  1  0.44429000  0.33125000  0.83098000  1.0
  N  N79  1  0.55571000  0.66875000  0.16902000  1.0
  N  N80  1  0.99055000  0.30031000  0.88810000  1.0
  N  N81  1  0.00945000  0.69969000  0.11190000  1.0
  O  O82  1  0.96909000  0.33256000  0.58622000  1.0
  O  O83  1  0.03091000  0.66744000  0.41378000  1.0
  O  O84  1  0.91698000  0.27151000  0.39147000  1.0
  O  O85  1  0.08302000  0.72848000  0.60853000  1.0
  O  O86  1  0.94298000  0.05083000  0.28785000  1.0
  O  O87  1  0.05702000  0.94917000  0.71215000  1.0
  O  O88  1  0.15378000  0.48585000  0.51236000  1.0
  O  O89  1  0.84622000  0.51415000  0.48764000  1.0
  O  O90  1  0.12820000  0.42463000  0.32540000  1.0
  O  O91  1  0.87180000  0.57537000  0.67460000  1.0
  O  O92  1  0.33228000  0.39027000  0.26575000  1.0
  O  O93  1  0.66772000  0.60973000  0.73425000  1.0
  O  O94  1  0.17278000  0.75699000  0.85091000  1.0
  O  O95  1  0.82722000  0.24301000  0.14909000  1.0
  O  O96  1  0.33050000  0.67956000  0.79118000  1.0
  O  O97  1  0.66949000  0.32044000  0.20882000  1.0
  O  O98  1  0.23308000  0.98436000  0.99320000  1.0
  O  O99  1  0.76692000  0.01564000  0.00680000  1.0
  O  O100  1  0.25980000  0.40584000  0.73522000  1.0
  O  O101  1  0.74021000  0.59416000  0.26478000  1.0
  O  O102  1  0.06950000  0.47771000  0.84426000  1.0
  O  O103  1  0.93050000  0.52229000  0.15574000  1.0
