# generated using pymatgen
data_BaH6C3(NO)4
_symmetry_space_group_name_H-M   'P 1'
_cell_length_a   7.44419000
_cell_length_b   7.83343528
_cell_length_c   14.94120000
_cell_angle_alpha   85.59075067
_cell_angle_beta   89.97120000
_cell_angle_gamma   61.63524263
_symmetry_Int_Tables_number   1
_chemical_formula_structural   BaH6C3(NO)4
_chemical_formula_sum   'Ba4 H24 C12 N16 O16'
_cell_volume   763.75680444
_cell_formula_units_Z   4
loop_
 _symmetry_equiv_pos_site_id
 _symmetry_equiv_pos_as_xyz
  1  'x, y, z'
loop_
 _atom_site_type_symbol
 _atom_site_label
 _atom_site_symmetry_multiplicity
 _atom_site_fract_x
 _atom_site_fract_y
 _atom_site_fract_z
 _atom_site_occupancy
  Ba  Ba0  1  0.48349000  0.32869000  0.69623000  1.0
  Ba  Ba1  1  0.81200000  0.67157000  0.80376000  1.0
  Ba  Ba2  1  0.51652000  0.67131000  0.30377000  1.0
  Ba  Ba3  1  0.18800000  0.32843000  0.19624000  1.0
  H  H4  1  0.34641000  0.09093000  0.85958000  1.0
  H  H5  1  0.43730000  0.90907000  0.64041000  1.0
  H  H6  1  0.65359000  0.90907000  0.14041000  1.0
  H  H7  1  0.56271000  0.09093000  0.35959000  1.0
  H  H8  1  0.54177000  0.10022000  0.89049000  1.0
  H  H9  1  0.64202000  0.89982000  0.60954000  1.0
  H  H10  1  0.45823000  0.89978000  0.10951000  1.0
  H  H11  1  0.35797000  0.10018000  0.39046000  1.0
  H  H12  1  0.36267000  0.40470000  0.45972000  1.0
  H  H13  1  0.76759000  0.59545000  0.04035000  1.0
  H  H14  1  0.63733000  0.59530000  0.54028000  1.0
  H  H15  1  0.23241000  0.40455000  0.95965000  1.0
  H  H16  1  0.57516000  0.22822000  0.48111000  1.0
  H  H17  1  0.80376000  0.77185000  0.01897000  1.0
  H  H18  1  0.42484000  0.77178000  0.51890000  1.0
  H  H19  1  0.19623000  0.22816000  0.98103000  1.0
  H  H20  1  0.92357000  0.30302000  0.50509000  1.0
  H  H21  1  0.22572000  0.69676000  0.99490000  1.0
  H  H22  1  0.07644000  0.69697000  0.49491000  1.0
  H  H23  1  0.77428000  0.30324000  0.00509000  1.0
  H  H24  1  0.18258000  0.21949000  0.54255000  1.0
  H  H25  1  0.40129000  0.78048000  0.95770000  1.0
  H  H26  1  0.81743000  0.78051000  0.45745000  1.0
  H  H27  1  0.59870000  0.21952000  0.04230000  1.0
  C  C28  1  0.95679000  0.38175000  0.63709000  1.0
  C  C29  1  0.33835000  0.61845000  0.86294000  1.0
  C  C30  1  0.04322000  0.61825000  0.36291000  1.0
  C  C31  1  0.66165000  0.38155000  0.13706000  1.0
  C  C32  1  0.03214000  0.24131000  0.56317000  1.0
  C  C33  1  0.27280000  0.75868000  0.93696000  1.0
  C  C34  1  0.96786000  0.75869000  0.43683000  1.0
  C  C35  1  0.72720000  0.24132000  0.06304000  1.0
  C  C36  1  0.04878000  0.05135000  0.59913000  1.0
  C  C37  1  0.09976000  0.94867000  0.90094000  1.0
  C  C38  1  0.95122000  0.94865000  0.40087000  1.0
  C  C39  1  0.90022000  0.05134000  0.09906000  1.0
  N  N40  1  0.89645000  0.02601000  0.63460000  1.0
  N  N41  1  0.92217000  0.97411000  0.86542000  1.0
  N  N42  1  0.10356000  0.97399000  0.36540000  1.0
  N  N43  1  0.07783000  0.02589000  0.13458000  1.0
  N  N44  1  0.98220000  0.83400000  0.66169000  1.0
  N  N45  1  0.81623000  0.16609000  0.83825000  1.0
  N  N46  1  0.01780000  0.16600000  0.33831000  1.0
  N  N47  1  0.18377000  0.83391000  0.16175000  1.0
  N  N48  1  0.17703000  0.74743000  0.64351000  1.0
  N  N49  1  0.92460000  0.25252000  0.85642000  1.0
  N  N50  1  0.82296000  0.25258000  0.35649000  1.0
  N  N51  1  0.07540000  0.74748000  0.14358000  1.0
  N  N52  1  0.22394000  0.88142000  0.60416000  1.0
  N  N53  1  0.10529000  0.11846000  0.89585000  1.0
  N  N54  1  0.77606000  0.11858000  0.39584000  1.0
  N  N55  1  0.89471000  0.88154000  0.10415000  1.0
  O  O56  1  0.08751000  0.38972000  0.68797000  1.0
  O  O57  1  0.47699000  0.61085000  0.81208000  1.0
  O  O58  1  0.91250000  0.61027000  0.31203000  1.0
  O  O59  1  0.52300000  0.38915000  0.18792000  1.0
  O  O60  1  0.76345000  0.48063000  0.64518000  1.0
  O  O61  1  0.24414000  0.51937000  0.85471000  1.0
  O  O62  1  0.23657000  0.51936000  0.35482000  1.0
  O  O63  1  0.75585000  0.48063000  0.14529000  1.0
  O  O64  1  0.48702000  0.06028000  0.84182000  1.0
  O  O65  1  0.54714000  0.93986000  0.65817000  1.0
  O  O66  1  0.51298000  0.93972000  0.15818000  1.0
  O  O67  1  0.45287000  0.06014000  0.34183000  1.0
  O  O68  1  0.44699000  0.31098000  0.51060000  1.0
  O  O69  1  0.75832000  0.68915000  0.98946000  1.0
  O  O70  1  0.55301000  0.68902000  0.48940000  1.0
  O  O71  1  0.24168000  0.31085000  0.01054000  1.0
