# generated using pymatgen
data_UH3C6(NO3)2
_symmetry_space_group_name_H-M   'P 1'
_cell_length_a   9.27684000
_cell_length_b   9.61190000
_cell_length_c   11.05760000
_cell_angle_alpha   89.99980000
_cell_angle_beta   77.09700000
_cell_angle_gamma   89.99940000
_symmetry_Int_Tables_number   1
_chemical_formula_structural   UH3C6(NO3)2
_chemical_formula_sum   'U4 H12 C24 N8 O24'
_cell_volume   961.08811869
_cell_formula_units_Z   4
loop_
 _symmetry_equiv_pos_site_id
 _symmetry_equiv_pos_as_xyz
  1  'x, y, z'
loop_
 _atom_site_type_symbol
 _atom_site_label
 _atom_site_symmetry_multiplicity
 _atom_site_fract_x
 _atom_site_fract_y
 _atom_site_fract_z
 _atom_site_occupancy
  U  U0  1  0.71774000  0.68014000  0.12030000  1.0
  U  U1  1  0.28223000  0.18015000  0.37968000  1.0
  U  U2  1  0.28225000  0.31986000  0.87970000  1.0
  U  U3  1  0.71777000  0.81985000  0.62032000  1.0
  H  H4  1  0.95057000  0.88657000  0.88326000  1.0
  H  H5  1  0.04943000  0.38657000  0.61674000  1.0
  H  H6  1  0.04943000  0.11343000  0.11674000  1.0
  H  H7  1  0.95057000  0.61343000  0.38326000  1.0
  H  H8  1  0.59185000  0.24284000  0.06163000  1.0
  H  H9  1  0.40815000  0.74283000  0.43838000  1.0
  H  H10  1  0.40815000  0.75717000  0.93837000  1.0
  H  H11  1  0.59185000  0.25717000  0.56162000  1.0
  H  H12  1  0.96636000  0.13150000  0.79654000  1.0
  H  H13  1  0.03365000  0.63150000  0.70347000  1.0
  H  H14  1  0.03364000  0.86850000  0.20346000  1.0
  H  H15  1  0.96635000  0.36850000  0.29654000  1.0
  C  C16  1  0.87027000  0.96640000  0.92223000  1.0
  C  C17  1  0.12972000  0.46640000  0.57777000  1.0
  C  C18  1  0.12973000  0.03360000  0.07777000  1.0
  C  C19  1  0.87028000  0.53360000  0.42223000  1.0
  C  C20  1  0.66157000  0.02818000  0.06668000  1.0
  C  C21  1  0.33842000  0.52817000  0.43332000  1.0
  C  C22  1  0.33843000  0.97183000  0.93332000  1.0
  C  C23  1  0.66158000  0.47183000  0.56668000  1.0
  C  C24  1  0.67244000  0.16393000  0.02017000  1.0
  C  C25  1  0.32756000  0.66393000  0.47983000  1.0
  C  C26  1  0.32756000  0.83607000  0.97982000  1.0
  C  C27  1  0.67244000  0.33607000  0.52017000  1.0
  C  C28  1  0.53959000  0.98000000  0.17048000  1.0
  C  C29  1  0.46040000  0.48001000  0.32951000  1.0
  C  C30  1  0.46041000  0.02000000  0.82952000  1.0
  C  C31  1  0.53960000  0.51999000  0.67049000  1.0
  C  C32  1  0.87764000  0.10213000  0.87475000  1.0
  C  C33  1  0.12237000  0.60213000  0.62525000  1.0
  C  C34  1  0.12236000  0.89788000  0.12525000  1.0
  C  C35  1  0.87764000  0.39787000  0.37475000  1.0
  C  C36  1  0.03260000  0.56168000  0.95870000  1.0
  C  C37  1  0.96740000  0.06167000  0.54131000  1.0
  C  C38  1  0.96740000  0.43832000  0.04130000  1.0
  C  C39  1  0.03261000  0.93831000  0.45870000  1.0
  N  N40  1  0.76154000  0.92934000  0.01797000  1.0
  N  N41  1  0.23846000  0.42934000  0.48202000  1.0
  N  N42  1  0.23846000  0.07066000  0.98202000  1.0
  N  N43  1  0.76154000  0.57066000  0.51798000  1.0
  N  N44  1  0.78053000  0.20102000  0.92328000  1.0
  N  N45  1  0.21947000  0.70101000  0.57673000  1.0
  N  N46  1  0.21947000  0.79899000  0.07672000  1.0
  N  N47  1  0.78053000  0.29899000  0.42327000  1.0
  O  O48  1  0.95186000  0.66889000  0.96617000  1.0
  O  O49  1  0.04813000  0.16889000  0.53383000  1.0
  O  O50  1  0.04813000  0.33111000  0.03383000  1.0
  O  O51  1  0.95187000  0.83110000  0.46618000  1.0
  O  O52  1  0.61290000  0.63232000  0.00818000  1.0
  O  O53  1  0.38710000  0.13231000  0.49182000  1.0
  O  O54  1  0.38710000  0.36768000  0.99182000  1.0
  O  O55  1  0.61290000  0.86769000  0.50818000  1.0
  O  O56  1  0.82569000  0.73716000  0.22815000  1.0
  O  O57  1  0.17431000  0.23716000  0.27186000  1.0
  O  O58  1  0.17431000  0.26284000  0.77185000  1.0
  O  O59  1  0.82569000  0.76283000  0.72814000  1.0
  O  O60  1  0.16001000  0.54405000  0.89014000  1.0
  O  O61  1  0.84000000  0.04404000  0.60987000  1.0
  O  O62  1  0.83998000  0.45595000  0.10986000  1.0
  O  O63  1  0.16001000  0.95595000  0.39013000  1.0
  O  O64  1  0.54079000  0.85303000  0.20117000  1.0
  O  O65  1  0.45921000  0.35303000  0.29883000  1.0
  O  O66  1  0.45921000  0.14697000  0.79883000  1.0
  O  O67  1  0.54079000  0.64697000  0.70118000  1.0
  O  O68  1  0.43996000  0.06609000  0.21941000  1.0
  O  O69  1  0.56002000  0.56609000  0.28058000  1.0
  O  O70  1  0.56005000  0.93391000  0.78060000  1.0
  O  O71  1  0.43997000  0.43391000  0.71941000  1.0
