# generated using pymatgen
data_CdH26C30(N4O3)2
_symmetry_space_group_name_H-M   'P 1'
_cell_length_a   7.62588000
_cell_length_b   9.27209000
_cell_length_c   11.58361910
_cell_angle_alpha   92.29299193
_cell_angle_beta   108.92294486
_cell_angle_gamma   104.58560000
_symmetry_Int_Tables_number   1
_chemical_formula_structural   CdH26C30(N4O3)2
_chemical_formula_sum   'Cd1 H26 C30 N8 O6'
_cell_volume   743.16565177
_cell_formula_units_Z   1
loop_
 _symmetry_equiv_pos_site_id
 _symmetry_equiv_pos_as_xyz
  1  'x, y, z'
loop_
 _atom_site_type_symbol
 _atom_site_label
 _atom_site_symmetry_multiplicity
 _atom_site_fract_x
 _atom_site_fract_y
 _atom_site_fract_z
 _atom_site_occupancy
  Cd  Cd0  1  0.50000000  0.00000000  0.00000000  1.0
  H  H1  1  0.98168000  0.46368000  0.90927000  1.0
  H  H2  1  0.01832000  0.53632000  0.09073000  1.0
  H  H3  1  0.78526000  0.24788000  0.74667000  1.0
  H  H4  1  0.21474000  0.75212000  0.25332000  1.0
  H  H5  1  0.25439000  0.29632000  0.60761000  1.0
  H  H6  1  0.74561000  0.70369000  0.39239000  1.0
  H  H7  1  0.44971000  0.51788000  0.76892000  1.0
  H  H8  1  0.55030000  0.48212000  0.23108000  1.0
  H  H9  1  0.72944000  0.23718000  0.29460000  1.0
  H  H10  1  0.27056000  0.76281000  0.70540000  1.0
  H  H11  1  0.97800000  0.29912000  0.38887000  1.0
  H  H12  1  0.02200000  0.70088000  0.61113000  1.0
  H  H13  1  0.80599000  0.35911000  0.43572000  1.0
  H  H14  1  0.19401000  0.64089000  0.56428000  1.0
  H  H15  1  0.61218000  0.79165000  0.71392000  1.0
  H  H16  1  0.38782000  0.20834000  0.28608000  1.0
  H  H17  1  0.74902000  0.70575000  0.91843000  1.0
  H  H18  1  0.25099000  0.29425000  0.08157000  1.0
  H  H19  1  0.10282000  0.81038000  0.03802000  1.0
  H  H20  1  0.89717000  0.18961000  0.96197000  1.0
  H  H21  1  0.18714000  0.06882000  0.76849000  1.0
  H  H22  1  0.81285000  0.93118000  0.23151000  1.0
  H  H23  1  0.46494000  0.06998000  0.74119000  1.0
  H  H24  1  0.53506000  0.93002000  0.25881000  1.0
  H  H25  1  0.58188000  0.20898000  0.85868000  1.0
  H  H26  1  0.41813000  0.79102000  0.14132000  1.0
  C  C27  1  0.34347000  0.63774000  0.94784000  1.0
  C  C28  1  0.65653000  0.36226000  0.05216000  1.0
  C  C29  1  0.22960000  0.50457000  0.85005000  1.0
  C  C30  1  0.77040000  0.49543000  0.14995000  1.0
  C  C31  1  0.04254000  0.42829000  0.84370000  1.0
  C  C32  1  0.95746000  0.57171000  0.15630000  1.0
  C  C33  1  0.93076000  0.30817000  0.75207000  1.0
  C  C34  1  0.06925000  0.69183000  0.24793000  1.0
  C  C35  1  0.00880000  0.26190000  0.66841000  1.0
  C  C36  1  0.99121000  0.73810000  0.33159000  1.0
  C  C37  1  0.19503000  0.33633000  0.67259000  1.0
  C  C38  1  0.80497000  0.66367000  0.32741000  1.0
  C  C39  1  0.30380000  0.45880000  0.76331000  1.0
  C  C40  1  0.69620000  0.54121000  0.23669000  1.0
  C  C41  1  0.82975000  0.26325000  0.39004000  1.0
  C  C42  1  0.17025000  0.73675000  0.60996000  1.0
  C  C43  1  0.80100000  0.13083000  0.45611000  1.0
  C  C44  1  0.19900000  0.86917000  0.54389000  1.0
  C  C45  1  0.82149000  0.98889000  0.60487000  1.0
  C  C46  1  0.17850000  0.01111000  0.39513000  1.0
  C  C47  1  0.88891000  0.93770000  0.72487000  1.0
  C  C48  1  0.11109000  0.06230000  0.27514000  1.0
  C  C49  1  0.76553000  0.83244000  0.76777000  1.0
  C  C50  1  0.23447000  0.16756000  0.23223000  1.0
  C  C51  1  0.84152000  0.78471000  0.88112000  1.0
  C  C52  1  0.15848000  0.21529000  0.11888000  1.0
  C  C53  1  0.03757000  0.84277000  0.94833000  1.0
  C  C54  1  0.96243000  0.15723000  0.05167000  1.0
  C  C55  1  0.08451000  0.98944000  0.79861000  1.0
  C  C56  1  0.91548000  0.01056000  0.20139000  1.0
  N  N57  1  0.89254000  0.13233000  0.57981000  1.0
  N  N58  1  0.10746000  0.86767000  0.42019000  1.0
  N  N59  1  0.68288000  0.99432000  0.40940000  1.0
  N  N60  1  0.31712000  0.00568000  0.59060000  1.0
  N  N61  1  0.69526000  0.90469000  0.50215000  1.0
  N  N62  1  0.30474000  0.09531000  0.49785000  1.0
  N  N63  1  0.15750000  0.94266000  0.90713000  1.0
  N  N64  1  0.84249000  0.05734000  0.09286000  1.0
  O  O65  1  0.44453000  0.74998000  0.91507000  1.0
  O  O66  1  0.55547000  0.25003000  0.08493000  1.0
  O  O67  1  0.32581000  0.62959000  0.05272000  1.0
  O  O68  1  0.67419000  0.37040000  0.94728000  1.0
  O  O69  1  0.55444000  0.09868000  0.82931000  1.0
  O  O70  1  0.44556000  0.90132000  0.17069000  1.0
