# generated using pymatgen
data_CuH17C17(NO)5
_symmetry_space_group_name_H-M   'P 1'
_cell_length_a   6.22976000
_cell_length_b   14.75260000
_cell_length_c   25.50820000
_cell_angle_alpha   106.69400000
_cell_angle_beta   89.99980000
_cell_angle_gamma   90.00000000
_symmetry_Int_Tables_number   1
_chemical_formula_structural   CuH17C17(NO)5
_chemical_formula_sum   'Cu4 H68 C68 N20 O20'
_cell_volume   2245.52746229
_cell_formula_units_Z   4
loop_
 _symmetry_equiv_pos_site_id
 _symmetry_equiv_pos_as_xyz
  1  'x, y, z'
loop_
 _atom_site_type_symbol
 _atom_site_label
 _atom_site_symmetry_multiplicity
 _atom_site_fract_x
 _atom_site_fract_y
 _atom_site_fract_z
 _atom_site_occupancy
  Cu  Cu0  1  0.75901000  0.44667000  0.32468000  1.0
  Cu  Cu1  1  0.25900000  0.55333000  0.17532000  1.0
  Cu  Cu2  1  0.24099000  0.55333000  0.67532000  1.0
  Cu  Cu3  1  0.74099000  0.44667000  0.82468000  1.0
  H  H4  1  0.39096000  0.25218000  0.24117000  1.0
  H  H5  1  0.89095000  0.74782000  0.25883000  1.0
  H  H6  1  0.60904000  0.74782000  0.75883000  1.0
  H  H7  1  0.10904000  0.25218000  0.74117000  1.0
  H  H8  1  0.37652000  0.37695000  0.25111000  1.0
  H  H9  1  0.87652000  0.62305000  0.24889000  1.0
  H  H10  1  0.62348000  0.62305000  0.74889000  1.0
  H  H11  1  0.12348000  0.37695000  0.75111000  1.0
  H  H12  1  0.63256000  0.38063000  0.19438000  1.0
  H  H13  1  0.13255000  0.61937000  0.30562000  1.0
  H  H14  1  0.36744000  0.61937000  0.80562000  1.0
  H  H15  1  0.86744000  0.38063000  0.69438000  1.0
  H  H16  1  0.80660000  0.28097000  0.17970000  1.0
  H  H17  1  0.30660000  0.71903000  0.32030000  1.0
  H  H18  1  0.19340000  0.71903000  0.82030000  1.0
  H  H19  1  0.69340000  0.28097000  0.67970000  1.0
  H  H20  1  0.75155000  0.25008000  0.31666000  1.0
  H  H21  1  0.25154000  0.74992000  0.18334000  1.0
  H  H22  1  0.24845000  0.74992000  0.68335000  1.0
  H  H23  1  0.74846000  0.25008000  0.81665000  1.0
  H  H24  1  0.97326000  0.26585000  0.27768000  1.0
  H  H25  1  0.47325000  0.73415000  0.22232000  1.0
  H  H26  1  0.02674000  0.73415000  0.72233000  1.0
  H  H27  1  0.52674000  0.26584000  0.77768000  1.0
  H  H28  1  0.47124000  0.12492000  0.27491000  1.0
  H  H29  1  0.97124000  0.87508000  0.22509000  1.0
  H  H30  1  0.52876000  0.87508000  0.72509000  1.0
  H  H31  1  0.02876000  0.12492000  0.77491000  1.0
  H  H32  1  0.39646000  0.97264000  0.20648000  1.0
  H  H33  1  0.89646000  0.02737000  0.29352000  1.0
  H  H34  1  0.60355000  0.02736000  0.79352000  1.0
  H  H35  1  0.10354000  0.97263000  0.70648000  1.0
  H  H36  1  0.54009000  0.89842000  0.07925000  1.0
  H  H37  1  0.04009000  0.10158000  0.42075000  1.0
  H  H38  1  0.45992000  0.10158000  0.92075000  1.0
  H  H39  1  0.95991000  0.89842000  0.57925000  1.0
  H  H40  1  0.52600000  0.83883000  0.13031000  1.0
  H  H41  1  0.02601000  0.16117000  0.36969000  1.0
  H  H42  1  0.47401000  0.16117000  0.86969000  1.0
  H  H43  1  0.97399000  0.83883000  0.63031000  1.0
  H  H44  1  0.77475000  0.84732000  0.09792000  1.0
  H  H45  1  0.27476000  0.15268000  0.40208000  1.0
  H  H46  1  0.22526000  0.15268000  0.90208000  1.0
  H  H47  1  0.72525000  0.84732000  0.59792000  1.0
  H  H48  1  0.97190000  0.00174000  0.11926000  1.0
  H  H49  1  0.47191000  0.99826000  0.38074000  1.0
  H  H50  1  0.02811000  0.99826000  0.88074000  1.0
  H  H51  1  0.52810000  0.00174000  0.61926000  1.0
  H  H52  1  0.04632000  0.15541000  0.18744000  1.0
  H  H53  1  0.54632000  0.84459000  0.31256000  1.0
  H  H54  1  0.95368000  0.84459000  0.81256000  1.0
  H  H55  1  0.45369000  0.15541000  0.68744000  1.0
  H  H56  1  0.80615000  0.67297000  0.59399000  1.0
  H  H57  1  0.30615000  0.32704000  0.90601000  1.0
  H  H58  1  0.19386000  0.32703000  0.40601000  1.0
  H  H59  1  0.69385000  0.67297000  0.09399000  1.0
  H  H60  1  0.49888000  0.63185000  0.54112000  1.0
  H  H61  1  0.99888000  0.36815000  0.95888000  1.0
  H  H62  1  0.50113000  0.36815000  0.45888000  1.0
  H  H63  1  0.00112000  0.63185000  0.04112000  1.0
  H  H64  1  0.38036000  0.57819000  0.44504000  1.0
  H  H65  1  0.88035000  0.42182000  0.05496000  1.0
  H  H66  1  0.61964000  0.42181000  0.55496000  1.0
  H  H67  1  0.11964000  0.57819000  0.94504000  1.0
  H  H68  1  0.22286000  0.50500000  0.35181000  1.0
  H  H69  1  0.72286000  0.49500000  0.14819000  1.0
  H  H70  1  0.77713000  0.49500000  0.64819000  1.0
  H  H71  1  0.27713000  0.50500000  0.85181000  1.0
  C  C72  1  0.45190000  0.32126000  0.26573000  1.0
  C  C73  1  0.95189000  0.67874000  0.23427000  1.0
  C  C74  1  0.54810000  0.67874000  0.73427000  1.0
  C  C75  1  0.04810000  0.32126000  0.76573000  1.0
  C  C76  1  0.39620000  0.33976000  0.32615000  1.0
  C  C77  1  0.89619000  0.66024000  0.17385000  1.0
  C  C78  1  0.60380000  0.66025000  0.67385000  1.0
  C  C79  1  0.10380000  0.33976000  0.82615000  1.0
  C  C80  1  0.76221000  0.34664000  0.21098000  1.0
  C  C81  1  0.26221000  0.65336000  0.28902000  1.0
  C  C82  1  0.23779000  0.65336000  0.78902000  1.0
  C  C83  1  0.73779000  0.34664000  0.71098000  1.0
  C  C84  1  0.94952000  0.41619000  0.22243000  1.0
  C  C85  1  0.44951000  0.58380000  0.27757000  1.0
  C  C86  1  0.05048000  0.58381000  0.77757000  1.0
  C  C87  1  0.55048000  0.41620000  0.72243000  1.0
  C  C88  1  0.80163000  0.24877000  0.27513000  1.0
  C  C89  1  0.30162000  0.75123000  0.22487000  1.0
  C  C90  1  0.19837000  0.75123000  0.72487000  1.0
  C  C91  1  0.69838000  0.24877000  0.77513000  1.0
  C  C92  1  0.75960000  0.15365000  0.23491000  1.0
  C  C93  1  0.25960000  0.84635000  0.26509000  1.0
  C  C94  1  0.24040000  0.84635000  0.76509000  1.0
  C  C95  1  0.74040000  0.15364000  0.73491000  1.0
  C  C96  1  0.57925000  0.09975000  0.24001000  1.0
  C  C97  1  0.07925000  0.90025000  0.25999000  1.0
  C  C98  1  0.42075000  0.90025000  0.75999000  1.0
  C  C99  1  0.92076000  0.09975000  0.74001000  1.0
  C  C100  1  0.53748000  0.01314000  0.20143000  1.0
  C  C101  1  0.03749000  0.98686000  0.29857000  1.0
  C  C102  1  0.46252000  0.98686000  0.79858000  1.0
  C  C103  1  0.96251000  0.01313000  0.70142000  1.0
  C  C104  1  0.67513000  0.97713000  0.15674000  1.0
  C  C105  1  0.17514000  0.02286000  0.34326000  1.0
  C  C106  1  0.32487000  0.02287000  0.84326000  1.0
  C  C107  1  0.82487000  0.97713000  0.65674000  1.0
  C  C108  1  0.62663000  0.88549000  0.11409000  1.0
  C  C109  1  0.12663000  0.11450000  0.38591000  1.0
  C  C110  1  0.37339000  0.11451000  0.88591000  1.0
  C  C111  1  0.87337000  0.88549000  0.61409000  1.0
  C  C112  1  0.85910000  0.02965000  0.15279000  1.0
  C  C113  1  0.35911000  0.97035000  0.34720000  1.0
  C  C114  1  0.14091000  0.97035000  0.84721000  1.0
  C  C115  1  0.64090000  0.02965000  0.65279000  1.0
  C  C116  1  0.90053000  0.11651000  0.19110000  1.0
  C  C117  1  0.40054000  0.88349000  0.30889000  1.0
  C  C118  1  0.09947000  0.88349000  0.80890000  1.0
  C  C119  1  0.59947000  0.11651000  0.69111000  1.0
  C  C120  1  0.65304000  0.62012000  0.51954000  1.0
  C  C121  1  0.15304000  0.37988000  0.98046000  1.0
  C  C122  1  0.34696000  0.37988000  0.48046000  1.0
  C  C123  1  0.84696000  0.62012000  0.01954000  1.0
  C  C124  1  0.85613000  0.56939000  0.44381000  1.0
  C  C125  1  0.35613000  0.43062000  0.05619000  1.0
  C  C126  1  0.14387000  0.43062000  0.55619000  1.0
  C  C127  1  0.64387000  0.56939000  0.94381000  1.0
  C  C128  1  0.04519000  0.59878000  0.47397000  1.0
  C  C129  1  0.54519000  0.40123000  0.02603000  1.0
  C  C130  1  0.95482000  0.40122000  0.52603000  1.0
  C  C131  1  0.45481000  0.59878000  0.97397000  1.0
  C  C132  1  0.04090000  0.64402000  0.53181000  1.0
  C  C133  1  0.54090000  0.35598000  0.96819000  1.0
  C  C134  1  0.95910000  0.35598000  0.46819000  1.0
  C  C135  1  0.45910000  0.64402000  0.03181000  1.0
  C  C136  1  0.12662000  0.53195000  0.38815000  1.0
  C  C137  1  0.62662000  0.46805000  0.11185000  1.0
  C  C138  1  0.87338000  0.46805000  0.61185000  1.0
  C  C139  1  0.37338000  0.53195000  0.88815000  1.0
  N  N140  1  0.68610000  0.32923000  0.26176000  1.0
  N  N141  1  0.18610000  0.67077000  0.23824000  1.0
  N  N142  1  0.31390000  0.67077000  0.73824000  1.0
  N  N143  1  0.81390000  0.32923000  0.76176000  1.0
  N  N144  1  0.82893000  0.64827000  0.55107000  1.0
  N  N145  1  0.32893000  0.35173000  0.94893000  1.0
  N  N146  1  0.17108000  0.35173000  0.44893000  1.0
  N  N147  1  0.67107000  0.64827000  0.05107000  1.0
  N  N148  1  0.65484000  0.58182000  0.46595000  1.0
  N  N149  1  0.15484000  0.41818000  0.03405000  1.0
  N  N150  1  0.34516000  0.41818000  0.53406000  1.0
  N  N151  1  0.84516000  0.58182000  0.96595000  1.0
  N  N152  1  0.21317000  0.57454000  0.43739000  1.0
  N  N153  1  0.71317000  0.42547000  0.06261000  1.0
  N  N154  1  0.78683000  0.42546000  0.56261000  1.0
  N  N155  1  0.28683000  0.57454000  0.93739000  1.0
  N  N156  1  0.91178000  0.52707000  0.38991000  1.0
  N  N157  1  0.41177000  0.47294000  0.11009000  1.0
  N  N158  1  0.08822000  0.47294000  0.61009000  1.0
  N  N159  1  0.58822000  0.52706000  0.88991000  1.0
  O  O160  1  0.05125000  0.42745000  0.18253000  1.0
  O  O161  1  0.55125000  0.57255000  0.31747000  1.0
  O  O162  1  0.94874000  0.57256000  0.81747000  1.0
  O  O163  1  0.44875000  0.42744000  0.68253000  1.0
  O  O164  1  0.51547000  0.40010000  0.36040000  1.0
  O  O165  1  0.01547000  0.59990000  0.13960000  1.0
  O  O166  1  0.48453000  0.59990000  0.63960000  1.0
  O  O167  1  0.98453000  0.40010000  0.86040000  1.0
  O  O168  1  0.23850000  0.29832000  0.33943000  1.0
  O  O169  1  0.73850000  0.70169000  0.16058000  1.0
  O  O170  1  0.76149000  0.70169000  0.66058000  1.0
  O  O171  1  0.26150000  0.29832000  0.83942000  1.0
  O  O172  1  0.98708000  0.46209000  0.27301000  1.0
  O  O173  1  0.48707000  0.53791000  0.22699000  1.0
  O  O174  1  0.01292000  0.53792000  0.72699000  1.0
  O  O175  1  0.51292000  0.46209000  0.77301000  1.0
  O  O176  1  0.19311000  0.67599000  0.56307000  1.0
  O  O177  1  0.69310000  0.32402000  0.93693000  1.0
  O  O178  1  0.80690000  0.32401000  0.43693000  1.0
  O  O179  1  0.30689000  0.67599000  0.06307000  1.0
