# generated using pymatgen
data_CdH22C28(NO3)2
_symmetry_space_group_name_H-M   'P 1'
_cell_length_a   8.75571000
_cell_length_b   12.90470000
_cell_length_c   17.09718812
_cell_angle_alpha   67.82779765
_cell_angle_beta   85.97170469
_cell_angle_gamma   79.23560000
_symmetry_Int_Tables_number   1
_chemical_formula_structural   CdH22C28(NO3)2
_chemical_formula_sum   'Cd2 H44 C56 N4 O12'
_cell_volume   1757.47868363
_cell_formula_units_Z   2
loop_
 _symmetry_equiv_pos_site_id
 _symmetry_equiv_pos_as_xyz
  1  'x, y, z'
loop_
 _atom_site_type_symbol
 _atom_site_label
 _atom_site_symmetry_multiplicity
 _atom_site_fract_x
 _atom_site_fract_y
 _atom_site_fract_z
 _atom_site_occupancy
  Cd  Cd0  1  0.54316000  0.84759000  0.00003000  1.0
  Cd  Cd1  1  0.45685000  0.15240000  0.99997000  1.0
  H  H2  1  0.88500000  0.10681000  0.00005000  1.0
  H  H3  1  0.11501000  0.89318000  0.99995000  1.0
  H  H4  1  0.32140000  0.53333000  0.00010000  1.0
  H  H5  1  0.67859000  0.46667000  0.99990000  1.0
  H  H6  1  0.78238000  0.87560000  0.85311000  1.0
  H  H7  1  0.21763000  0.27145000  0.85294000  1.0
  H  H8  1  0.21763000  0.12440000  0.14689000  1.0
  H  H9  1  0.78237000  0.72855000  0.14706000  1.0
  H  H10  1  0.30691000  0.98441000  0.84122000  1.0
  H  H11  1  0.69311000  0.17452000  0.84121000  1.0
  H  H12  1  0.69310000  0.01559000  0.15878000  1.0
  H  H13  1  0.30689000  0.82548000  0.15879000  1.0
  H  H14  1  0.30999000  0.06767000  0.68188000  1.0
  H  H15  1  0.69005000  0.25059000  0.68187000  1.0
  H  H16  1  0.69001000  0.93232000  0.31812000  1.0
  H  H17  1  0.30995000  0.74941000  0.31813000  1.0
  H  H18  1  0.56511000  0.05127000  0.60777000  1.0
  H  H19  1  0.43493000  0.34123000  0.60768000  1.0
  H  H20  1  0.43488000  0.94873000  0.39223000  1.0
  H  H21  1  0.56507000  0.65877000  0.39232000  1.0
  H  H22  1  0.94057000  0.89827000  0.73245000  1.0
  H  H23  1  0.05950000  0.36962000  0.73224000  1.0
  H  H24  1  0.05943000  0.10174000  0.26755000  1.0
  H  H25  1  0.94050000  0.63038000  0.26776000  1.0
  H  H26  1  0.84930000  0.90205000  0.64043000  1.0
  H  H27  1  0.15067000  0.45772000  0.64014000  1.0
  H  H28  1  0.15070000  0.09796000  0.35956000  1.0
  H  H29  1  0.84933000  0.54228000  0.35986000  1.0
  H  H30  1  0.21855000  0.27230000  0.46653000  1.0
  H  H31  1  0.78164000  0.26102000  0.46644000  1.0
  H  H32  1  0.78145000  0.72770000  0.53347000  1.0
  H  H33  1  0.21836000  0.73898000  0.53356000  1.0
  H  H34  1  0.40133000  0.10389000  0.45786000  1.0
  H  H35  1  0.59871000  0.43810000  0.45768000  1.0
  H  H36  1  0.59867000  0.89611000  0.54214000  1.0
  H  H37  1  0.40128000  0.56190000  0.54232000  1.0
  H  H38  1  0.34009000  0.90931000  0.53743000  1.0
  H  H39  1  0.65966000  0.55307000  0.53735000  1.0
  H  H40  1  0.65991000  0.09069000  0.46257000  1.0
  H  H41  1  0.34034000  0.44694000  0.46265000  1.0
  H  H42  1  0.10178000  0.88449000  0.62251000  1.0
  H  H43  1  0.89794000  0.49293000  0.62249000  1.0
  H  H44  1  0.89821000  0.11551000  0.37749000  1.0
  H  H45  1  0.10206000  0.50707000  0.37750000  1.0
  C  C46  1  0.80273000  0.95421000  0.00002000  1.0
  C  C47  1  0.19727000  0.04579000  0.99998000  1.0
  C  C48  1  0.92388000  0.02119000  0.00002000  1.0
  C  C49  1  0.07612000  0.97881000  0.99998000  1.0
  C  C50  1  0.47418000  0.65190000  0.00003000  1.0
  C  C51  1  0.52582000  0.34810000  0.99997000  1.0
  C  C52  1  0.44279000  0.54258000  0.00004000  1.0
  C  C53  1  0.55720000  0.45742000  0.99996000  1.0
  C  C54  1  0.68110000  0.91857000  0.81202000  1.0
  C  C55  1  0.31891000  0.26962000  0.81189000  1.0
  C  C56  1  0.31890000  0.08144000  0.18797000  1.0
  C  C57  1  0.68109000  0.73038000  0.18811000  1.0
  C  C58  1  0.41450000  0.97960000  0.80550000  1.0
  C  C59  1  0.58551000  0.21509000  0.80545000  1.0
  C  C60  1  0.58550000  0.02039000  0.19451000  1.0
  C  C61  1  0.41449000  0.78491000  0.19455000  1.0
  C  C62  1  0.41704000  0.02503000  0.71747000  1.0
  C  C63  1  0.58298000  0.25771000  0.71742000  1.0
  C  C64  1  0.58296000  0.97497000  0.28253000  1.0
  C  C65  1  0.41702000  0.74229000  0.28258000  1.0
  C  C66  1  0.55924000  0.01555000  0.67654000  1.0
  C  C67  1  0.44079000  0.30819000  0.67644000  1.0
  C  C68  1  0.44075000  0.98445000  0.32346000  1.0
  C  C69  1  0.55921000  0.69181000  0.32356000  1.0
  C  C70  1  0.69482000  0.96100000  0.72422000  1.0
  C  C71  1  0.30523000  0.31505000  0.72408000  1.0
  C  C72  1  0.30518000  0.03900000  0.27578000  1.0
  C  C73  1  0.69478000  0.68495000  0.27592000  1.0
  C  C74  1  0.85083000  0.94700000  0.68386000  1.0
  C  C75  1  0.14920000  0.36937000  0.68368000  1.0
  C  C76  1  0.14917000  0.05300000  0.31614000  1.0
  C  C77  1  0.85080000  0.63063000  0.31632000  1.0
  C  C78  1  0.02238000  0.06490000  0.59155000  1.0
  C  C79  1  0.97762000  0.34353000  0.59148000  1.0
  C  C80  1  0.97762000  0.93509000  0.40845000  1.0
  C  C81  1  0.02237000  0.65647000  0.40852000  1.0
  C  C82  1  0.05555000  0.17530000  0.54702000  1.0
  C  C83  1  0.94453000  0.27763000  0.54696000  1.0
  C  C84  1  0.94445000  0.82470000  0.45298000  1.0
  C  C85  1  0.05547000  0.72237000  0.45304000  1.0
  C  C86  1  0.19334000  0.18687000  0.50047000  1.0
  C  C87  1  0.80678000  0.31255000  0.50036000  1.0
  C  C88  1  0.80666000  0.81313000  0.49953000  1.0
  C  C89  1  0.19322000  0.68745000  0.49964000  1.0
  C  C90  1  0.29633000  0.09247000  0.49608000  1.0
  C  C91  1  0.70369000  0.41131000  0.49594000  1.0
  C  C92  1  0.70367000  0.90753000  0.50392000  1.0
  C  C93  1  0.29631000  0.58869000  0.50406000  1.0
  C  C94  1  0.26164000  0.98418000  0.54018000  1.0
  C  C95  1  0.73823000  0.47551000  0.54007000  1.0
  C  C96  1  0.73836000  0.01582000  0.45982000  1.0
  C  C97  1  0.26177000  0.52449000  0.45993000  1.0
  C  C98  1  0.12617000  0.96972000  0.58821000  1.0
  C  C99  1  0.87370000  0.44201000  0.58814000  1.0
  C  C100  1  0.87383000  0.03027000  0.41179000  1.0
  C  C101  1  0.12630000  0.55800000  0.41186000  1.0
  N  N102  1  0.54424000  0.92802000  0.85139000  1.0
  N  N103  1  0.45577000  0.22076000  0.85130000  1.0
  N  N104  1  0.45577000  0.07198000  0.14861000  1.0
  N  N105  1  0.54423000  0.77925000  0.14870000  1.0
  O  O106  1  0.65938000  0.00249000  0.00002000  1.0
  O  O107  1  0.34062000  0.99751000  0.99998000  1.0
  O  O108  1  0.83819000  0.85483000  0.00002000  1.0
  O  O109  1  0.16181000  0.14517000  0.99998000  1.0
  O  O110  1  0.35805000  0.72864000  0.00006000  1.0
  O  O111  1  0.64195000  0.27136000  0.99994000  1.0
  O  O112  1  0.61555000  0.66545000  1.00000000  1.0
  O  O113  1  0.38445000  0.33454000  0.00001000  1.0
  O  O114  1  0.88680000  0.05879000  0.63646000  1.0
  O  O115  1  0.11322000  0.30481000  0.63641000  1.0
  O  O116  1  0.11319000  0.94121000  0.36354000  1.0
  O  O117  1  0.88678000  0.69519000  0.36359000  1.0
