# generated using pymatgen
data_CoH32C34(N2O5)2
_symmetry_space_group_name_H-M   'P 1'
_cell_length_a   8.79189000
_cell_length_b   9.71498000
_cell_length_c   9.73293000
_cell_angle_alpha   93.80050000
_cell_angle_beta   103.79000000
_cell_angle_gamma   112.39800000
_symmetry_Int_Tables_number   1
_chemical_formula_structural   CoH32C34(N2O5)2
_chemical_formula_sum   'Co1 H32 C34 N4 O10'
_cell_volume   734.93444763
_cell_formula_units_Z   1
loop_
 _symmetry_equiv_pos_site_id
 _symmetry_equiv_pos_as_xyz
  1  'x, y, z'
loop_
 _atom_site_type_symbol
 _atom_site_label
 _atom_site_symmetry_multiplicity
 _atom_site_fract_x
 _atom_site_fract_y
 _atom_site_fract_z
 _atom_site_occupancy
  Co  Co0  1  0.00000000  0.50000000  0.50000000  1.0
  H  H1  1  0.99402000  0.19983000  0.51144000  1.0
  H  H2  1  0.00597000  0.80017000  0.48856000  1.0
  H  H3  1  0.95526000  0.98176000  0.33704000  1.0
  H  H4  1  0.04474000  0.01824000  0.66296000  1.0
  H  H5  1  0.97833000  0.26761000  0.01439000  1.0
  H  H6  1  0.02168000  0.73239000  0.98560000  1.0
  H  H7  1  0.99931000  0.46698000  0.19641000  1.0
  H  H8  1  0.00069000  0.53302000  0.80358000  1.0
  H  H9  1  0.80870000  0.91752000  0.98629000  1.0
  H  H10  1  0.19131000  0.08248000  0.01371000  1.0
  H  H11  1  0.97104000  0.89028000  0.10964000  1.0
  H  H12  1  0.02897000  0.10973000  0.89036000  1.0
  H  H13  1  0.23790000  0.50880000  0.04492000  1.0
  H  H14  1  0.76210000  0.49121000  0.95508000  1.0
  H  H15  1  0.37516000  0.19857000  0.51871000  1.0
  H  H16  1  0.62484000  0.80143000  0.48129000  1.0
  H  H17  1  0.74233000  0.37678000  0.59855000  1.0
  H  H18  1  0.25767000  0.62321000  0.40145000  1.0
  H  H19  1  0.89920000  0.32468000  0.65471000  1.0
  H  H20  1  0.10079000  0.67531000  0.34529000  1.0
  H  H21  1  0.51862000  0.36441000  0.37185000  1.0
  H  H22  1  0.48138000  0.63559000  0.62816000  1.0
  H  H23  1  0.57781000  0.26317000  0.15969000  1.0
  H  H24  1  0.42219000  0.73682000  0.84031000  1.0
  H  H25  1  0.31608000  0.81313000  0.24327000  1.0
  H  H26  1  0.68392000  0.18687000  0.75673000  1.0
  H  H27  1  0.26958000  0.93406000  0.45506000  1.0
  H  H28  1  0.73041000  0.06594000  0.54494000  1.0
  H  H29  1  0.37990000  0.84245000  0.01778000  1.0
  H  H30  1  0.62010000  0.15755000  0.98222000  1.0
  H  H31  1  0.60074000  0.93171000  0.10529000  1.0
  H  H32  1  0.39926000  0.06830000  0.89472000  1.0
  C  C33  1  0.98385000  0.20829000  0.39908000  1.0
  C  C34  1  0.01615000  0.79171000  0.60092000  1.0
  C  C35  1  0.96649000  0.08843000  0.30152000  1.0
  C  C36  1  0.03352000  0.91158000  0.69848000  1.0
  C  C37  1  0.96255000  0.10382000  0.15851000  1.0
  C  C38  1  0.03746000  0.89619000  0.84149000  1.0
  C  C39  1  0.97574000  0.24425000  0.12217000  1.0
  C  C40  1  0.02427000  0.75575000  0.87783000  1.0
  C  C41  1  0.98920000  0.35805000  0.22455000  1.0
  C  C42  1  0.01081000  0.64196000  0.77545000  1.0
  C  C43  1  0.94424000  0.97531000  0.05129000  1.0
  C  C44  1  0.05577000  0.02469000  0.94871000  1.0
  C  C45  1  0.34508000  0.44215000  0.88800000  1.0
  C  C46  1  0.65491000  0.55785000  0.11200000  1.0
  C  C47  1  0.49434000  0.43699000  0.86366000  1.0
  C  C48  1  0.50565000  0.56301000  0.13633000  1.0
  C  C49  1  0.35264000  0.50412000  0.02455000  1.0
  C  C50  1  0.64735000  0.49588000  0.97545000  1.0
  C  C51  1  0.18460000  0.40263000  0.76692000  1.0
  C  C52  1  0.81540000  0.59736000  0.23308000  1.0
  C  C53  1  0.49301000  0.36573000  0.72115000  1.0
  C  C54  1  0.50700000  0.63427000  0.27884000  1.0
  C  C55  1  0.47431000  0.24345000  0.33725000  1.0
  C  C56  1  0.52569000  0.75655000  0.66275000  1.0
  C  C57  1  0.50668000  0.18416000  0.21927000  1.0
  C  C58  1  0.49331000  0.81583000  0.78073000  1.0
  C  C59  1  0.45135000  0.02743000  0.18254000  1.0
  C  C60  1  0.54865000  0.97257000  0.81747000  1.0
  C  C61  1  0.36198000  0.93546000  0.26733000  1.0
  C  C62  1  0.63801000  0.06454000  0.73267000  1.0
  C  C63  1  0.33386000  0.00053000  0.38389000  1.0
  C  C64  1  0.66613000  0.99947000  0.61612000  1.0
  C  C65  1  0.48654000  0.95421000  0.06003000  1.0
  C  C66  1  0.51346000  0.04579000  0.93998000  1.0
  N  N67  1  0.99235000  0.34233000  0.36216000  1.0
  N  N68  1  0.00765000  0.65767000  0.63783000  1.0
  N  N69  1  0.38948000  0.15151000  0.41617000  1.0
  N  N70  1  0.61051000  0.84849000  0.58383000  1.0
  O  O71  1  0.20439000  0.47096000  0.66170000  1.0
  O  O72  1  0.79560000  0.52903000  0.33830000  1.0
  O  O73  1  0.04040000  0.31427000  0.78212000  1.0
  O  O74  1  0.95959000  0.68572000  0.21788000  1.0
  O  O75  1  0.36140000  0.24401000  0.65702000  1.0
  O  O76  1  0.63860000  0.75600000  0.34297000  1.0
  O  O77  1  0.62325000  0.42892000  0.67728000  1.0
  O  O78  1  0.37676000  0.57109000  0.32272000  1.0
  O  O79  1  0.82403000  0.34216000  0.56544000  1.0
  O  O80  1  0.17596000  0.65784000  0.43456000  1.0
