# generated using pymatgen
data_ZnH11C20NCl2O7
_symmetry_space_group_name_H-M   'P 1'
_cell_length_a   11.10290000
_cell_length_b   16.38350000
_cell_length_c   17.60000000
_cell_angle_alpha   95.51800000
_cell_angle_beta   90.97870000
_cell_angle_gamma   93.27000000
_symmetry_Int_Tables_number   1
_chemical_formula_structural   ZnH11C20NCl2O7
_chemical_formula_sum   'Zn2 H22 C40 N2 Cl4 O14'
_cell_volume   3180.67221813
_cell_formula_units_Z   2
loop_
 _symmetry_equiv_pos_site_id
 _symmetry_equiv_pos_as_xyz
  1  'x, y, z'
loop_
 _atom_site_type_symbol
 _atom_site_label
 _atom_site_symmetry_multiplicity
 _atom_site_fract_x
 _atom_site_fract_y
 _atom_site_fract_z
 _atom_site_occupancy
  Zn  Zn0  1  0.48980000  0.41698000  0.51320000  1.0
  Zn  Zn1  1  0.50863000  0.59218000  0.51379000  1.0
  H  H2  1  0.37526000  0.71399000  0.44472000  1.0
  H  H3  1  0.37247000  0.86367000  0.43893000  1.0
  H  H4  1  0.68645000  0.88972000  0.59129000  1.0
  H  H5  1  0.31555000  0.12296000  0.41338000  1.0
  H  H6  1  0.62885000  0.14007000  0.56596000  1.0
  H  H7  1  0.61851000  0.29096000  0.57428000  1.0
  H  H8  1  0.60940000  0.01043000  0.55674000  1.0
  H  H9  1  0.39391000  0.99814000  0.44253000  1.0
  H  H10  1  0.48923000  0.61322000  0.27747000  1.0
  H  H11  1  0.49102000  0.61028000  0.13682000  1.0
  H  H12  1  0.51823000  0.34733000  0.12283000  1.0
  H  H13  1  0.48686000  0.65447000  0.90260000  1.0
  H  H14  1  0.50736000  0.39099000  0.88816000  1.0
  H  H15  1  0.50946000  0.38819000  0.74772000  1.0
  H  H16  1  0.50721000  0.40682000  0.00891000  1.0
  H  H17  1  0.49478000  0.59474000  0.01643000  1.0
  H  H18  1  0.20161000  0.39837000  0.55324000  1.0
  H  H19  1  0.79048000  0.38019000  0.53529000  1.0
  H  H20  1  0.29452000  0.59445000  0.41224000  1.0
  H  H21  1  0.21726000  0.67830000  0.28941000  1.0
  H  H22  1  0.79781000  0.68396000  0.29601000  1.0
  H  H23  1  0.71557000  0.59447000  0.41538000  1.0
  C  C24  1  0.49664000  0.49522000  0.36581000  1.0
  C  C25  1  0.25840000  0.51327000  0.50262000  1.0
  C  C26  1  0.50428000  0.50717000  0.65900000  1.0
  C  C27  1  0.74182000  0.49731000  0.49366000  1.0
  C  C28  1  0.44285000  0.75549000  0.47610000  1.0
  C  C29  1  0.44227000  0.83946000  0.47313000  1.0
  C  C30  1  0.53062000  0.89131000  0.51514000  1.0
  C  C31  1  0.61564000  0.85346000  0.55765000  1.0
  C  C32  1  0.60976000  0.76825000  0.55757000  1.0
  C  C33  1  0.53799000  0.98050000  0.51859000  1.0
  C  C34  1  0.46537000  0.02743000  0.48103000  1.0
  C  C35  1  0.38533000  0.15733000  0.44946000  1.0
  C  C36  1  0.47157000  0.11685000  0.48846000  1.0
  C  C37  1  0.55825000  0.16646000  0.53420000  1.0
  C  C38  1  0.55371000  0.25084000  0.53898000  1.0
  C  C39  1  0.38723000  0.24296000  0.45742000  1.0
  C  C40  1  0.50139000  0.48414000  0.28075000  1.0
  C  C41  1  0.49522000  0.55539000  0.24213000  1.0
  C  C42  1  0.49623000  0.55323000  0.16352000  1.0
  C  C43  1  0.50338000  0.47778000  0.11837000  1.0
  C  C44  1  0.51118000  0.40647000  0.15613000  1.0
  C  C45  1  0.51095000  0.40896000  0.23563000  1.0
  C  C46  1  0.50323000  0.46979000  0.03536000  1.0
  C  C47  1  0.49851000  0.53176000  0.99002000  1.0
  C  C48  1  0.49230000  0.59520000  0.86928000  1.0
  C  C49  1  0.49836000  0.52374000  0.90699000  1.0
  C  C50  1  0.50382000  0.44826000  0.86162000  1.0
  C  C51  1  0.50495000  0.44629000  0.78294000  1.0
  C  C52  1  0.50030000  0.51772000  0.74430000  1.0
  C  C53  1  0.49245000  0.59295000  0.78979000  1.0
  C  C54  1  0.87146000  0.49465000  0.47503000  1.0
  C  C55  1  0.93681000  0.55193000  0.43032000  1.0
  C  C56  1  0.93366000  0.43465000  0.50883000  1.0
  C  C57  1  0.87936000  0.60097000  0.37979000  1.0
  C  C58  1  0.94404000  0.65093000  0.33261000  1.0
  C  C59  1  0.12937000  0.50196000  0.48000000  1.0
  C  C60  1  0.06271000  0.43983000  0.51367000  1.0
  C  C61  1  0.06780000  0.55342000  0.43082000  1.0
  C  C62  1  0.12909000  0.60048000  0.37827000  1.0
  C  C63  1  0.06925000  0.64978000  0.33106000  1.0
  N  N64  1  0.52491000  0.71931000  0.51776000  1.0
  N  N65  1  0.46982000  0.28962000  0.50132000  1.0
  Cl  Cl66  1  0.71433000  0.72424000  0.61051000  1.0
  Cl  Cl67  1  0.27899000  0.29007000  0.41033000  1.0
  Cl  Cl68  1  0.52629000  0.31562000  0.27252000  1.0
  Cl  Cl69  1  0.48076000  0.68686000  0.75348000  1.0
  O  O70  1  0.48713000  0.43147000  0.40191000  1.0
  O  O71  1  0.50132000  0.56892000  0.39717000  1.0
  O  O72  1  0.31721000  0.58272000  0.49855000  1.0
  O  O73  1  0.31016000  0.45300000  0.52941000  1.0
  O  O74  1  0.50501000  0.57111000  0.62321000  1.0
  O  O75  1  0.50718000  0.43365000  0.62768000  1.0
  O  O76  1  0.68419000  0.43091000  0.51039000  1.0
  O  O77  1  0.69135000  0.56614000  0.49693000  1.0
  O  O78  1  0.11147000  0.38570000  0.55592000  1.0
  O  O79  1  0.87941000  0.37360000  0.54404000  1.0
  O  O80  1  0.25015000  0.59906000  0.36292000  1.0
  O  O81  1  0.13396000  0.69390000  0.28201000  1.0
  O  O82  1  0.88327000  0.69706000  0.28589000  1.0
  O  O83  1  0.75733000  0.60138000  0.36629000  1.0
