# generated using pymatgen
data_CuH20C28(NO)4
_symmetry_space_group_name_H-M   'P 1'
_cell_length_a   10.26510000
_cell_length_b   10.34030000
_cell_length_c   12.76210000
_cell_angle_alpha   104.03300000
_cell_angle_beta   110.74900000
_cell_angle_gamma   100.45400000
_symmetry_Int_Tables_number   1
_chemical_formula_structural   CuH20C28(NO)4
_chemical_formula_sum   'Cu2 H40 C56 N8 O8'
_cell_volume   1174.38530326
_cell_formula_units_Z   2
loop_
 _symmetry_equiv_pos_site_id
 _symmetry_equiv_pos_as_xyz
  1  'x, y, z'
loop_
 _atom_site_type_symbol
 _atom_site_label
 _atom_site_symmetry_multiplicity
 _atom_site_fract_x
 _atom_site_fract_y
 _atom_site_fract_z
 _atom_site_occupancy
  Cu  Cu0  1  0.40573000  0.17223000  0.55484000  1.0
  Cu  Cu1  1  0.59426000  0.82777000  0.44516000  1.0
  H  H2  1  0.96188000  0.13951000  0.56535000  1.0
  H  H3  1  0.03811000  0.86049000  0.43465000  1.0
  H  H4  1  0.75677000  0.46312000  0.61195000  1.0
  H  H5  1  0.24322000  0.53688000  0.38804000  1.0
  H  H6  1  0.20630000  0.56553000  0.66041000  1.0
  H  H7  1  0.79370000  0.43447000  0.33959000  1.0
  H  H8  1  0.64130000  0.91660000  0.82731000  1.0
  H  H9  1  0.35869000  0.08339000  0.17269000  1.0
  H  H10  1  0.41798000  0.44154000  0.27224000  1.0
  H  H11  1  0.58203000  0.55846000  0.72777000  1.0
  H  H12  1  0.98671000  0.64258000  0.66019000  1.0
  H  H13  1  0.01329000  0.35742000  0.33981000  1.0
  H  H14  1  0.57178000  0.29525000  0.99881000  1.0
  H  H15  1  0.42823000  0.70475000  0.00119000  1.0
  H  H16  1  0.13172000  0.05652000  0.33623000  1.0
  H  H17  1  0.86829000  0.94348000  0.66377000  1.0
  H  H18  1  0.84408000  0.98433000  0.32863000  1.0
  H  H19  1  0.15592000  0.01567000  0.67137000  1.0
  H  H20  1  0.02253000  0.10376000  0.14652000  1.0
  H  H21  1  0.97746000  0.89624000  0.85349000  1.0
  H  H22  1  0.52976000  0.96011000  0.63460000  1.0
  H  H23  1  0.47023000  0.03988000  0.36540000  1.0
  H  H24  1  0.51020000  0.37689000  0.45495000  1.0
  H  H25  1  0.48980000  0.62311000  0.54506000  1.0
  H  H26  1  0.66289000  0.26108000  0.15616000  1.0
  H  H27  1  0.33711000  0.73892000  0.84383000  1.0
  H  H28  1  0.81877000  0.83760000  0.13099000  1.0
  H  H29  1  0.18123000  0.16240000  0.86901000  1.0
  H  H30  1  0.92507000  0.20703000  0.03085000  1.0
  H  H31  1  0.07493000  0.79298000  0.96915000  1.0
  H  H32  1  0.47096000  0.32690000  0.80196000  1.0
  H  H33  1  0.52904000  0.67310000  0.19804000  1.0
  H  H34  1  0.28415000  0.49325000  0.94526000  1.0
  H  H35  1  0.71587000  0.50675000  0.05475000  1.0
  H  H36  1  0.76957000  0.20422000  0.34106000  1.0
  H  H37  1  0.23042000  0.79579000  0.65894000  1.0
  H  H38  1  0.83727000  0.27708000  0.85031000  1.0
  H  H39  1  0.16274000  0.72294000  0.14969000  1.0
  H  H40  1  0.02221000  0.42743000  0.80863000  1.0
  H  H41  1  0.97780000  0.57258000  0.19138000  1.0
  C  C42  1  0.84573000  0.29124000  0.58661000  1.0
  C  C43  1  0.15427000  0.70876000  0.41339000  1.0
  C  C44  1  0.23231000  0.31211000  0.61292000  1.0
  C  C45  1  0.76769000  0.68787000  0.38708000  1.0
  C  C46  1  0.96816000  0.24976000  0.58616000  1.0
  C  C47  1  0.03183000  0.75024000  0.41383000  1.0
  C  C48  1  0.09770000  0.34990000  0.61329000  1.0
  C  C49  1  0.90229000  0.65010000  0.38670000  1.0
  C  C50  1  0.85286000  0.43286000  0.61206000  1.0
  C  C51  1  0.14713000  0.56714000  0.38793000  1.0
  C  C52  1  0.70824000  0.18577000  0.56449000  1.0
  C  C53  1  0.29175000  0.81423000  0.43550000  1.0
  C  C54  1  0.61930000  0.10324000  0.93061000  1.0
  C  C55  1  0.38071000  0.89676000  0.06939000  1.0
  C  C56  1  0.10392000  0.49121000  0.64085000  1.0
  C  C57  1  0.89607000  0.50879000  0.35914000  1.0
  C  C58  1  0.60497000  0.00873000  0.82475000  1.0
  C  C59  1  0.39503000  0.99127000  0.17525000  1.0
  C  C60  1  0.21003000  0.27950000  0.19336000  1.0
  C  C61  1  0.78997000  0.72050000  0.80665000  1.0
  C  C62  1  0.15207000  0.31566000  0.08398000  1.0
  C  C63  1  0.84794000  0.68434000  0.91602000  1.0
  C  C64  1  0.68483000  0.07793000  0.04496000  1.0
  C  C65  1  0.31518000  0.92207000  0.95504000  1.0
  C  C66  1  0.34980000  0.35579000  0.28226000  1.0
  C  C67  1  0.65020000  0.64422000  0.71775000  1.0
  C  C68  1  0.98195000  0.53281000  0.63983000  1.0
  C  C69  1  0.01805000  0.46719000  0.36016000  1.0
  C  C70  1  0.56823000  0.21891000  0.92155000  1.0
  C  C71  1  0.43177000  0.78109000  0.07845000  1.0
  C  C72  1  0.18948000  0.14153000  0.31806000  1.0
  C  C73  1  0.81052000  0.85847000  0.68195000  1.0
  C  C74  1  0.80167000  0.01556000  0.25042000  1.0
  C  C75  1  0.19833000  0.98444000  0.74958000  1.0
  C  C76  1  0.12991000  0.16986000  0.21302000  1.0
  C  C77  1  0.87009000  0.83014000  0.78698000  1.0
  C  C78  1  0.54259000  0.03193000  0.71787000  1.0
  C  C79  1  0.45741000  0.96806000  0.28213000  1.0
  C  C80  1  0.40185000  0.32105000  0.38469000  1.0
  C  C81  1  0.59815000  0.67895000  0.61532000  1.0
  C  C82  1  0.69905000  0.16804000  0.15271000  1.0
  C  C83  1  0.30096000  0.83196000  0.84729000  1.0
  C  C84  1  0.78542000  0.93276000  0.13950000  1.0
  C  C85  1  0.21458000  0.06724000  0.86050000  1.0
  C  C86  1  0.00235000  0.27033000  0.00946000  1.0
  C  C87  1  0.99765000  0.72968000  0.99055000  1.0
  C  C88  1  0.50889000  0.23678000  0.81171000  1.0
  C  C89  1  0.49111000  0.76322000  0.18829000  1.0
  C  C90  1  0.20169000  0.43104000  0.96320000  1.0
  C  C91  1  0.79832000  0.56896000  0.03681000  1.0
  C  C92  1  0.75822000  0.13616000  0.25639000  1.0
  C  C93  1  0.24178000  0.86384000  0.74361000  1.0
  C  C94  1  0.95313000  0.30982000  0.90887000  1.0
  C  C95  1  0.04688000  0.69019000  0.09113000  1.0
  C  C96  1  0.05486000  0.39262000  0.88519000  1.0
  C  C97  1  0.94515000  0.60739000  0.11481000  1.0
  N  N98  1  0.49542000  0.14432000  0.71106000  1.0
  N  N99  1  0.50457000  0.85567000  0.28894000  1.0
  N  N100  1  0.32355000  0.21586000  0.40272000  1.0
  N  N101  1  0.67645000  0.78414000  0.59728000  1.0
  N  N102  1  0.25081000  0.39556000  0.06085000  1.0
  N  N103  1  0.74920000  0.60445000  0.93916000  1.0
  N  N104  1  0.72957000  0.96223000  0.03935000  1.0
  N  N105  1  0.27043000  0.03777000  0.96065000  1.0
  O  O106  1  0.21873000  0.18023000  0.57301000  1.0
  O  O107  1  0.78126000  0.81976000  0.42699000  1.0
  O  O108  1  0.70840000  0.06273000  0.55779000  1.0
  O  O109  1  0.29159000  0.93727000  0.44219000  1.0
  O  O110  1  0.34892000  0.40745000  0.64882000  1.0
  O  O111  1  0.65108000  0.59254000  0.35118000  1.0
  O  O112  1  0.59988000  0.23567000  0.55501000  1.0
  O  O113  1  0.40012000  0.76433000  0.44500000  1.0
