# generated using pymatgen
data_ErCuH16C24(NO2)4
_symmetry_space_group_name_H-M   'P 1'
_cell_length_a   12.20810000
_cell_length_b   12.66100000
_cell_length_c   14.02311390
_cell_angle_alpha   77.88244035
_cell_angle_beta   64.18816177
_cell_angle_gamma   61.17720000
_symmetry_Int_Tables_number   1
_chemical_formula_structural   ErCuH16C24(NO2)4
_chemical_formula_sum   'Er2 Cu2 H32 C48 N8 O16'
_cell_volume   1709.52136207
_cell_formula_units_Z   2
loop_
 _symmetry_equiv_pos_site_id
 _symmetry_equiv_pos_as_xyz
  1  'x, y, z'
loop_
 _atom_site_type_symbol
 _atom_site_label
 _atom_site_symmetry_multiplicity
 _atom_site_fract_x
 _atom_site_fract_y
 _atom_site_fract_z
 _atom_site_occupancy
  Er  Er0  1  0.45553000  0.49993000  0.49997000  1.0
  Er  Er1  1  0.70545000  0.00007000  0.99998000  1.0
  Cu  Cu2  1  0.21094000  0.00001000  0.99997000  1.0
  Cu  Cu3  1  0.96094000  0.49999000  0.49997000  1.0
  H  H4  1  0.09488000  0.19693000  0.88127000  1.0
  H  H5  1  0.17274000  0.80318000  0.11919000  1.0
  H  H6  1  0.04182000  0.30308000  0.38127000  1.0
  H  H7  1  0.72593000  0.69682000  0.61919000  1.0
  H  H8  1  0.44874000  0.79828000  0.88921000  1.0
  H  H9  1  0.13648000  0.20120000  0.11102000  1.0
  H  H10  1  0.99702000  0.70171000  0.38922000  1.0
  H  H11  1  0.08769000  0.29880000  0.61102000  1.0
  H  H12  1  0.53351000  0.65552000  0.74481000  1.0
  H  H13  1  0.93403000  0.34422000  0.25527000  1.0
  H  H14  1  0.93905000  0.84447000  0.24481000  1.0
  H  H15  1  0.02824000  0.15579000  0.75528000  1.0
  H  H16  1  0.16489000  0.32323000  0.72478000  1.0
  H  H17  1  0.21275000  0.67696000  0.27563000  1.0
  H  H18  1  0.23812000  0.17679000  0.22478000  1.0
  H  H19  1  0.63973000  0.82304000  0.77563000  1.0
  H  H20  1  0.04864000  0.92156000  0.92975000  1.0
  H  H21  1  0.89988000  0.07876000  0.06992000  1.0
  H  H22  1  0.72019000  0.57843000  0.42976000  1.0
  H  H23  1  0.72864000  0.42123000  0.56992000  1.0
  H  H24  1  0.11537000  0.78086000  0.79363000  1.0
  H  H25  1  0.68973000  0.21974000  0.20590000  1.0
  H  H26  1  0.64623000  0.71914000  0.29364000  1.0
  H  H27  1  0.65948000  0.28026000  0.70591000  1.0
  H  H28  1  0.56523000  0.14268000  0.73063000  1.0
  H  H29  1  0.43864000  0.85751000  0.26926000  1.0
  H  H30  1  0.45791000  0.35733000  0.23064000  1.0
  H  H31  1  0.04616000  0.64249000  0.76925000  1.0
  H  H32  1  0.48242000  0.02100000  0.88277000  1.0
  H  H33  1  0.38606000  0.97914000  0.11720000  1.0
  H  H34  1  0.25343000  0.47901000  0.38278000  1.0
  H  H35  1  0.11521000  0.52085000  0.61720000  1.0
  C  C36  1  0.19877000  0.18661000  0.84392000  1.0
  C  C37  1  0.22901000  0.81354000  0.15644000  1.0
  C  C38  1  0.13538000  0.31340000  0.34392000  1.0
  C  C39  1  0.79256000  0.68646000  0.65644000  1.0
  C  C40  1  0.37900000  0.79258000  0.86375000  1.0
  C  C41  1  0.03548000  0.20719000  0.13631000  1.0
  C  C42  1  0.92159000  0.70741000  0.36375000  1.0
  C  C43  1  0.99268000  0.29281000  0.63631000  1.0
  C  C44  1  0.42559000  0.71360000  0.78457000  1.0
  C  C45  1  0.92388000  0.28630000  0.21539000  1.0
  C  C46  1  0.88919000  0.78640000  0.28458000  1.0
  C  C47  1  0.96017000  0.21371000  0.71540000  1.0
  C  C48  1  0.23757000  0.25602000  0.75754000  1.0
  C  C49  1  0.25093000  0.74418000  0.24280000  1.0
  C  C50  1  0.24359000  0.24399000  0.25754000  1.0
  C  C51  1  0.74512000  0.75582000  0.74280000  1.0
  C  C52  1  0.37769000  0.62911000  0.66810000  1.0
  C  C53  1  0.67495000  0.37093000  0.33174000  1.0
  C  C54  1  0.75679000  0.87090000  0.16811000  1.0
  C  C55  1  0.79588000  0.12908000  0.83175000  1.0
  C  C56  1  0.41271000  0.31988000  0.62485000  1.0
  C  C57  1  0.35772000  0.68012000  0.37510000  1.0
  C  C58  1  0.48258000  0.18013000  0.12485000  1.0
  C  C59  1  0.78786000  0.81987000  0.87510000  1.0
  C  C60  1  0.33121000  0.70932000  0.75610000  1.0
  C  C61  1  0.79667000  0.29084000  0.24367000  1.0
  C  C62  1  0.79054000  0.79068000  0.25610000  1.0
  C  C63  1  0.83749000  0.20917000  0.74369000  1.0
  C  C64  1  0.15515000  0.86144000  0.88766000  1.0
  C  C65  1  0.90423000  0.13879000  0.11207000  1.0
  C  C66  1  0.76659000  0.63855000  0.38766000  1.0
  C  C67  1  0.79302000  0.36120000  0.61208000  1.0
  C  C68  1  0.19328000  0.78306000  0.81050000  1.0
  C  C69  1  0.78680000  0.21732000  0.18911000  1.0
  C  C70  1  0.72634000  0.71694000  0.31051000  1.0
  C  C71  1  0.75411000  0.28268000  0.68913000  1.0
  C  C72  1  0.37137000  0.24099000  0.71408000  1.0
  C  C73  1  0.32639000  0.75921000  0.28608000  1.0
  C  C74  1  0.36236000  0.25903000  0.21408000  1.0
  C  C75  1  0.83563000  0.74079000  0.78607000  1.0
  C  C76  1  0.46110000  0.15559000  0.75961000  1.0
  C  C77  1  0.37627000  0.84460000  0.24044000  1.0
  C  C78  1  0.36668000  0.34441000  0.25962000  1.0
  C  C79  1  0.97087000  0.65540000  0.74044000  1.0
  C  C80  1  0.41481000  0.08810000  0.84545000  1.0
  C  C81  1  0.34818000  0.91207000  0.15465000  1.0
  C  C82  1  0.25291000  0.41190000  0.34546000  1.0
  C  C83  1  0.01025000  0.58792000  0.65466000  1.0
  N  N84  1  0.24605000  0.86805000  0.91352000  1.0
  N  N85  1  0.02768000  0.13188000  0.08643000  1.0
  N  N86  1  0.86410000  0.63194000  0.41353000  1.0
  N  N87  1  0.90957000  0.36811000  0.58643000  1.0
  N  N88  1  0.28538000  0.10289000  0.88780000  1.0
  N  N89  1  0.27581000  0.89724000  0.11244000  1.0
  N  N90  1  0.13829000  0.39711000  0.38780000  1.0
  N  N91  1  0.92305000  0.60275000  0.61245000  1.0
  O  O92  1  0.33433000  0.38375000  0.57561000  1.0
  O  O93  1  0.29392000  0.61629000  0.42440000  1.0
  O  O94  1  0.46805000  0.11626000  0.07562000  1.0
  O  O95  1  0.66022000  0.88370000  0.92440000  1.0
  O  O96  1  0.50369000  0.58016000  0.60701000  1.0
  O  O97  1  0.69090000  0.41978000  0.39288000  1.0
  O  O98  1  0.83383000  0.91985000  0.10703000  1.0
  O  O99  1  0.86069000  0.08022000  0.89289000  1.0
  O  O100  1  0.28998000  0.61259000  0.65450000  1.0
  O  O101  1  0.55715000  0.38729000  0.34544000  1.0
  O  O102  1  0.65257000  0.88741000  0.15451000  1.0
  O  O103  1  0.69443000  0.11271000  0.84546000  1.0
  O  O104  1  0.52295000  0.32614000  0.60216000  1.0
  O  O105  1  0.45176000  0.67363000  0.39757000  1.0
  O  O106  1  0.59908000  0.17388000  0.10215000  1.0
  O  O107  1  0.87541000  0.82636000  0.89758000  1.0
