# generated using pymatgen
data_MnP2H6(CO3)2
_symmetry_space_group_name_H-M   'P 1'
_cell_length_a   5.46453000
_cell_length_b   7.69063000
_cell_length_c   8.06027000
_cell_angle_alpha   83.71980000
_cell_angle_beta   75.98260000
_cell_angle_gamma   80.28400000
_symmetry_Int_Tables_number   1
_chemical_formula_structural   MnP2H6(CO3)2
_chemical_formula_sum   'Mn2 P4 H12 C4 O12'
_cell_volume   323.10496117
_cell_formula_units_Z   2
loop_
 _symmetry_equiv_pos_site_id
 _symmetry_equiv_pos_as_xyz
  1  'x, y, z'
loop_
 _atom_site_type_symbol
 _atom_site_label
 _atom_site_symmetry_multiplicity
 _atom_site_fract_x
 _atom_site_fract_y
 _atom_site_fract_z
 _atom_site_occupancy
  Mn  Mn0  1  0.20076000  0.79560000  0.99339000  1.0
  Mn  Mn1  1  0.79924000  0.20439000  0.00662000  1.0
  P  P2  1  0.36288000  0.40967000  0.77426000  1.0
  P  P3  1  0.63713000  0.59034000  0.22573000  1.0
  P  P4  1  0.24607000  0.08768000  0.25519000  1.0
  P  P5  1  0.75392000  0.91232000  0.74481000  1.0
  H  H6  1  0.21833000  0.47939000  0.51692000  1.0
  H  H7  1  0.78169000  0.52062000  0.48308000  1.0
  H  H8  1  0.47198000  0.30458000  0.49398000  1.0
  H  H9  1  0.52804000  0.69543000  0.50602000  1.0
  H  H10  1  0.29366000  0.13520000  0.81530000  1.0
  H  H11  1  0.70634000  0.86480000  0.18470000  1.0
  H  H12  1  0.26142000  0.98664000  0.54696000  1.0
  H  H13  1  0.73857000  0.01333000  0.45304000  1.0
  H  H14  1  0.17181000  0.82959000  0.43448000  1.0
  H  H15  1  0.82818000  0.17039000  0.56551000  1.0
  H  H16  1  0.02459000  0.35119000  0.22888000  1.0
  H  H17  1  0.97540000  0.64881000  0.77114000  1.0
  C  C18  1  0.40802000  0.43593000  0.54372000  1.0
  C  C19  1  0.59201000  0.56409000  0.45627000  1.0
  C  C20  1  0.14111000  0.96988000  0.46014000  1.0
  C  C21  1  0.85887000  0.03010000  0.53986000  1.0
  O  O22  1  0.20555000  0.57968000  0.84813000  1.0
  O  O23  1  0.79446000  0.42033000  0.15186000  1.0
  O  O24  1  0.61068000  0.34496000  0.82842000  1.0
  O  O25  1  0.38933000  0.65504000  0.17158000  1.0
  O  O26  1  0.18292000  0.25753000  0.82566000  1.0
  O  O27  1  0.81708000  0.74247000  0.17434000  1.0
  O  O28  1  0.09957000  0.03816000  0.13107000  1.0
  O  O29  1  0.90043000  0.96185000  0.86893000  1.0
  O  O30  1  0.17237000  0.29133000  0.28244000  1.0
  O  O31  1  0.82761000  0.70866000  0.71759000  1.0
  O  O32  1  0.53832000  0.05047000  0.19882000  1.0
  O  O33  1  0.46167000  0.94954000  0.80118000  1.0
