# generated using pymatgen
data_ZnH15C21N2O5
_symmetry_space_group_name_H-M   'P 1'
_cell_length_a   10.26080000
_cell_length_b   10.49080000
_cell_length_c   22.40550000
_cell_angle_alpha   94.47430000
_cell_angle_beta   89.99990000
_cell_angle_gamma   89.99980000
_symmetry_Int_Tables_number   1
_chemical_formula_structural   ZnH15C21N2O5
_chemical_formula_sum   'Zn4 H60 C84 N8 O20'
_cell_volume   2404.46746412
_cell_formula_units_Z   4
loop_
 _symmetry_equiv_pos_site_id
 _symmetry_equiv_pos_as_xyz
  1  'x, y, z'
loop_
 _atom_site_type_symbol
 _atom_site_label
 _atom_site_symmetry_multiplicity
 _atom_site_fract_x
 _atom_site_fract_y
 _atom_site_fract_z
 _atom_site_occupancy
  Zn  Zn0  1  0.87824000  0.93778000  0.98586000  1.0
  Zn  Zn1  1  0.37824000  0.56222000  0.51414000  1.0
  Zn  Zn2  1  0.12176000  0.06222000  0.01414000  1.0
  Zn  Zn3  1  0.62176000  0.43778000  0.48586000  1.0
  H  H4  1  0.71192000  0.24696000  0.90408000  1.0
  H  H5  1  0.21192000  0.25304000  0.59592000  1.0
  H  H6  1  0.28808000  0.75305000  0.09592000  1.0
  H  H7  1  0.78807000  0.74695000  0.40408000  1.0
  H  H8  1  0.62270000  0.43406000  0.85558000  1.0
  H  H9  1  0.12270000  0.06596000  0.64443000  1.0
  H  H10  1  0.37730000  0.56596000  0.14442000  1.0
  H  H11  1  0.87730000  0.93404000  0.35558000  1.0
  H  H12  1  0.96885000  0.64887000  0.90351000  1.0
  H  H13  1  0.46884000  0.85113000  0.59649000  1.0
  H  H14  1  0.03117000  0.35113000  0.09649000  1.0
  H  H15  1  0.53117000  0.14887000  0.40351000  1.0
  H  H16  1  0.06101000  0.45722000  0.95045000  1.0
  H  H17  1  0.56100000  0.04277000  0.54955000  1.0
  H  H18  1  0.93900000  0.54278000  0.04955000  1.0
  H  H19  1  0.43900000  0.95723000  0.45045000  1.0
  H  H20  1  0.85127000  0.49117000  0.76708000  1.0
  H  H21  1  0.35126000  0.00883000  0.73292000  1.0
  H  H22  1  0.14874000  0.50884000  0.23292000  1.0
  H  H23  1  0.64873000  0.99116000  0.26708000  1.0
  H  H24  1  0.77613000  0.45811000  0.66108000  1.0
  H  H25  1  0.27613000  0.04188000  0.83893000  1.0
  H  H26  1  0.22387000  0.54189000  0.33893000  1.0
  H  H27  1  0.72387000  0.95811000  0.16107000  1.0
  H  H28  1  0.47508000  0.73784000  0.69580000  1.0
  H  H29  1  0.97508000  0.76216000  0.80420000  1.0
  H  H30  1  0.52492000  0.26216000  0.30420000  1.0
  H  H31  1  0.02492000  0.23783000  0.19580000  1.0
  H  H32  1  0.55069000  0.77396000  0.80235000  1.0
  H  H33  1  0.05069000  0.72605000  0.69765000  1.0
  H  H34  1  0.44931000  0.22605000  0.19765000  1.0
  H  H35  1  0.94931000  0.27394000  0.30235000  1.0
  H  H36  1  0.67042000  0.07707000  0.92978000  1.0
  H  H37  1  0.17042000  0.42293000  0.57022000  1.0
  H  H38  1  0.32958000  0.92293000  0.07022000  1.0
  H  H39  1  0.82958000  0.57707000  0.42978000  1.0
  H  H40  1  0.43624000  0.04058000  0.89756000  1.0
  H  H41  1  0.93624000  0.45943000  0.60244000  1.0
  H  H42  1  0.56376000  0.95943000  0.10244000  1.0
  H  H43  1  0.06375000  0.54058000  0.39756000  1.0
  H  H44  1  0.33327000  0.83163000  0.91272000  1.0
  H  H45  1  0.83327000  0.66838000  0.58728000  1.0
  H  H46  1  0.66666667  0.16838000  0.08728000  1.0
  H  H47  1  0.16673000  0.33163000  0.41272000  1.0
  H  H48  1  0.69666000  0.71634000  0.99050000  1.0
  H  H49  1  0.19666000  0.78366000  0.50950000  1.0
  H  H50  1  0.30334000  0.28366000  0.00950000  1.0
  H  H51  1  0.80334000  0.21634000  0.49050000  1.0
  H  H52  1  0.30158000  0.49156000  0.94333000  1.0
  H  H53  1  0.80158000  0.00845000  0.55667000  1.0
  H  H54  1  0.69842000  0.50844000  0.05667000  1.0
  H  H55  1  0.19842000  0.99156000  0.44333000  1.0
  H  H56  1  0.32878000  0.59882000  0.88594000  1.0
  H  H57  1  0.82878000  0.90118000  0.61406000  1.0
  H  H58  1  0.67123000  0.40118000  0.11406000  1.0
  H  H59  1  0.17123000  0.09882000  0.38594000  1.0
  H  H60  1  0.24728000  0.65363000  0.95261000  1.0
  H  H61  1  0.74727000  0.84637000  0.54739000  1.0
  H  H62  1  0.75273000  0.34637000  0.04739000  1.0
  H  H63  1  0.25272000  0.15363000  0.45262000  1.0
  C  C64  1  0.94595000  0.22539000  0.95848000  1.0
  C  C65  1  0.44595000  0.27461000  0.54152000  1.0
  C  C66  1  0.05404000  0.77460000  0.04152000  1.0
  C  C67  1  0.55404000  0.72539000  0.45848000  1.0
  C  C68  1  0.89296000  0.33964000  0.93008000  1.0
  C  C69  1  0.39296000  0.16036000  0.56992000  1.0
  C  C70  1  0.10704000  0.66036000  0.06991000  1.0
  C  C71  1  0.60704000  0.83963000  0.43008000  1.0
  C  C72  1  0.76887000  0.33426000  0.90354000  1.0
  C  C73  1  0.26887000  0.16574000  0.59646000  1.0
  C  C74  1  0.23113000  0.66575000  0.09646000  1.0
  C  C75  1  0.73113000  0.83425000  0.40354000  1.0
  C  C76  1  0.71858000  0.43833000  0.87658000  1.0
  C  C77  1  0.21858000  0.06168000  0.62342000  1.0
  C  C78  1  0.28142000  0.56168000  0.12342000  1.0
  C  C79  1  0.78142000  0.93831000  0.37658000  1.0
  C  C80  1  0.79303000  0.54987000  0.87617000  1.0
  C  C81  1  0.29302000  0.95013000  0.62383000  1.0
  C  C82  1  0.20698000  0.45014000  0.12383000  1.0
  C  C83  1  0.70698000  0.04986000  0.37617000  1.0
  C  C84  1  0.91535000  0.55912000  0.90324000  1.0
  C  C85  1  0.41535000  0.94089000  0.59676000  1.0
  C  C86  1  0.08465000  0.44089000  0.09676000  1.0
  C  C87  1  0.58466000  0.05911000  0.40324000  1.0
  C  C88  1  0.96503000  0.45311000  0.92966000  1.0
  C  C89  1  0.46503000  0.04689000  0.57034000  1.0
  C  C90  1  0.03497000  0.54689000  0.07034000  1.0
  C  C91  1  0.53497000  0.95311000  0.42966000  1.0
  C  C92  1  0.70454000  0.63430000  0.79057000  1.0
  C  C93  1  0.20453000  0.86571000  0.70943000  1.0
  C  C94  1  0.29546000  0.36572000  0.20943000  1.0
  C  C95  1  0.79546000  0.13428000  0.29057000  1.0
  C  C96  1  0.76998000  0.54601000  0.75112000  1.0
  C  C97  1  0.26997000  0.95399000  0.74889000  1.0
  C  C98  1  0.23003000  0.45400000  0.24888000  1.0
  C  C99  1  0.73002000  0.04600000  0.25112000  1.0
  C  C100  1  0.72845000  0.52817000  0.69212000  1.0
  C  C101  1  0.22844000  0.97182000  0.80788000  1.0
  C  C102  1  0.27155000  0.47183000  0.30788000  1.0
  C  C103  1  0.77155000  0.02817000  0.19212000  1.0
  C  C104  1  0.62255000  0.59695000  0.67153000  1.0
  C  C105  1  0.12255000  0.90303000  0.82847000  1.0
  C  C106  1  0.37745000  0.40305000  0.32847000  1.0
  C  C107  1  0.87745000  0.09695000  0.17152000  1.0
  C  C108  1  0.55878000  0.68588000  0.71152000  1.0
  C  C109  1  0.05878000  0.81411000  0.78848000  1.0
  C  C110  1  0.44122000  0.31412000  0.28848000  1.0
  C  C111  1  0.94122000  0.18588000  0.21152000  1.0
  C  C112  1  0.59991000  0.70563000  0.77082000  1.0
  C  C113  1  0.09990000  0.79437000  0.72918000  1.0
  C  C114  1  0.40010000  0.29438000  0.22918000  1.0
  C  C115  1  0.90009000  0.20562000  0.27082000  1.0
  C  C116  1  0.57848000  0.57120000  0.60814000  1.0
  C  C117  1  0.07848000  0.92880000  0.89187000  1.0
  C  C118  1  0.42152000  0.42881000  0.39187000  1.0
  C  C119  1  0.92151000  0.07119000  0.10813000  1.0
  C  C120  1  0.61937000  0.98778000  0.93505000  1.0
  C  C121  1  0.11936000  0.51222000  0.56495000  1.0
  C  C122  1  0.38064000  0.01222000  0.06495000  1.0
  C  C123  1  0.88063000  0.48779000  0.43505000  1.0
  C  C124  1  0.49143000  0.96596000  0.91729000  1.0
  C  C125  1  0.99143000  0.53403000  0.58271000  1.0
  C  C126  1  0.50857000  0.03403000  0.08271000  1.0
  C  C127  1  0.00857000  0.46597000  0.41729000  1.0
  C  C128  1  0.43420000  0.84843000  0.92600000  1.0
  C  C129  1  0.93420000  0.65157000  0.57400000  1.0
  C  C130  1  0.56580000  0.15157000  0.07400000  1.0
  C  C131  1  0.06580000  0.34844000  0.42600000  1.0
  C  C132  1  0.50682000  0.75542000  0.95296000  1.0
  C  C133  1  0.00681000  0.74457000  0.54704000  1.0
  C  C134  1  0.49318000  0.24458000  0.04703000  1.0
  C  C135  1  0.99318000  0.25542000  0.45297000  1.0
  C  C136  1  0.63578000  0.78571000  0.96982000  1.0
  C  C137  1  0.13577000  0.71429000  0.53018000  1.0
  C  C138  1  0.36423000  0.21429000  0.03018000  1.0
  C  C139  1  0.86422000  0.28571000  0.46982000  1.0
  C  C140  1  0.45301000  0.62868000  0.96284000  1.0
  C  C141  1  0.95300000  0.87132000  0.53716000  1.0
  C  C142  1  0.54700000  0.37132000  0.03716000  1.0
  C  C143  1  0.04700000  0.12868000  0.46284000  1.0
  C  C144  1  0.32536000  0.58987000  0.93452000  1.0
  C  C145  1  0.82536000  0.91013000  0.56547000  1.0
  C  C146  1  0.67464000  0.41013000  0.06547000  1.0
  C  C147  1  0.17464000  0.08987000  0.43453000  1.0
  N  N148  1  0.68986000  0.89855000  0.96103000  1.0
  N  N149  1  0.18986000  0.60145000  0.53897000  1.0
  N  N150  1  0.31014000  0.10145000  0.03897000  1.0
  N  N151  1  0.81014000  0.39855000  0.46103000  1.0
  N  N152  1  0.52455000  0.55946000  0.99600000  1.0
  N  N153  1  0.02454000  0.94054000  0.50400000  1.0
  N  N154  1  0.47546000  0.44054000  0.00400000  1.0
  N  N155  1  0.97546000  0.05946000  0.49600000  1.0
  O  O156  1  0.87017000  0.12909000  0.96006000  1.0
  O  O157  1  0.37016000  0.37091000  0.53994000  1.0
  O  O158  1  0.12984000  0.87091000  0.03994000  1.0
  O  O159  1  0.62984000  0.62909000  0.46007000  1.0
  O  O160  1  0.06150000  0.23149000  0.97937000  1.0
  O  O161  1  0.56149000  0.26851000  0.52063000  1.0
  O  O162  1  0.93850000  0.76851000  0.02063000  1.0
  O  O163  1  0.43850000  0.73149000  0.47937000  1.0
  O  O164  1  0.74312000  0.65541000  0.84960000  1.0
  O  O165  1  0.24311000  0.84460000  0.65039000  1.0
  O  O166  1  0.25689000  0.34460000  0.15039000  1.0
  O  O167  1  0.75689000  0.15539000  0.34961000  1.0
  O  O168  1  0.65543000  0.50573000  0.57304000  1.0
  O  O169  1  0.15543000  0.99427000  0.92696000  1.0
  O  O170  1  0.34457000  0.49428000  0.42696000  1.0
  O  O171  1  0.84457000  0.00572000  0.07304000  1.0
  O  O172  1  0.46836000  0.61576000  0.59368000  1.0
  O  O173  1  0.96837000  0.88423000  0.90633000  1.0
  O  O174  1  0.53164000  0.38424000  0.40632000  1.0
  O  O175  1  0.03163000  0.11576000  0.09367000  1.0
