# generated using pymatgen
data_NiH11C16N4O7
_symmetry_space_group_name_H-M   'P 1'
_cell_length_a   7.18320000
_cell_length_b   7.51010000
_cell_length_c   14.55660000
_cell_angle_alpha   82.00350000
_cell_angle_beta   80.07400000
_cell_angle_gamma   89.54000000
_symmetry_Int_Tables_number   1
_chemical_formula_structural   NiH11C16N4O7
_chemical_formula_sum   'Ni2 H22 C32 N8 O14'
_cell_volume   765.89995466
_cell_formula_units_Z   2
loop_
 _symmetry_equiv_pos_site_id
 _symmetry_equiv_pos_as_xyz
  1  'x, y, z'
loop_
 _atom_site_type_symbol
 _atom_site_label
 _atom_site_symmetry_multiplicity
 _atom_site_fract_x
 _atom_site_fract_y
 _atom_site_fract_z
 _atom_site_occupancy
  Ni  Ni0  1  0.50000000  0.50000000  1.00000000  1.0
  Ni  Ni1  1  0.00000000  0.00000000  0.00000000  1.0
  H  H2  1  0.70303000  0.86878000  0.97918000  1.0
  H  H3  1  0.29697000  0.13122000  0.02081000  1.0
  H  H4  1  0.90396000  0.05861000  0.77578000  1.0
  H  H5  1  0.09603000  0.94139000  0.22423000  1.0
  H  H6  1  0.82587000  0.48959000  0.55902000  1.0
  H  H7  1  0.17413000  0.51041000  0.44098000  1.0
  H  H8  1  0.93222000  0.29583000  0.43755000  1.0
  H  H9  1  0.06778000  0.70417000  0.56246000  1.0
  H  H10  1  0.75056000  0.74371000  0.27057000  1.0
  H  H11  1  0.24944000  0.25628000  0.72943000  1.0
  H  H12  1  0.62165000  0.56787000  0.42491000  1.0
  H  H13  1  0.37836000  0.43212000  0.57509000  1.0
  H  H14  1  0.53984000  0.23838000  0.43223000  1.0
  H  H15  1  0.46017000  0.76161000  0.56777000  1.0
  H  H16  1  0.99326000  0.85754000  0.65602000  1.0
  H  H17  1  0.00672000  0.14246000  0.34398000  1.0
  H  H18  1  0.62583000  0.21795000  0.85092000  1.0
  H  H19  1  0.37417000  0.78205000  0.14909000  1.0
  H  H20  1  0.78850000  0.76115000  0.83022000  1.0
  H  H21  1  0.21150000  0.23885000  0.16978000  1.0
  H  H22  1  0.67689000  0.08270000  0.98746000  1.0
  H  H23  1  0.32312000  0.91730000  0.01253000  1.0
  C  C24  1  0.69591000  0.34235000  0.19415000  1.0
  C  C25  1  0.30410000  0.65765000  0.80585000  1.0
  C  C26  1  0.74048000  0.24678000  0.10802000  1.0
  C  C27  1  0.25952000  0.75323000  0.89197000  1.0
  C  C28  1  0.97025000  0.05928000  0.53632000  1.0
  C  C29  1  0.02974000  0.94072000  0.46368000  1.0
  C  C30  1  0.90500000  0.10711000  0.70151000  1.0
  C  C31  1  0.09499000  0.89290000  0.29850000  1.0
  C  C32  1  0.62555000  0.24500000  0.28312000  1.0
  C  C33  1  0.37446000  0.75499000  0.71688000  1.0
  C  C34  1  0.86481000  0.35111000  0.57903000  1.0
  C  C35  1  0.13519000  0.64889000  0.42097000  1.0
  C  C36  1  0.73890000  0.52586000  0.19116000  1.0
  C  C37  1  0.26110000  0.47414000  0.80883000  1.0
  C  C38  1  0.92327000  0.23972000  0.51125000  1.0
  C  C39  1  0.07673000  0.76028000  0.48875000  1.0
  C  C40  1  0.85707000  0.28473000  0.67384000  1.0
  C  C41  1  0.14292000  0.71527000  0.32616000  1.0
  C  C42  1  0.79825000  0.65581000  0.10200000  1.0
  C  C43  1  0.20174000  0.34419000  0.89800000  1.0
  C  C44  1  0.71474000  0.60228000  0.27490000  1.0
  C  C45  1  0.28526000  0.39771000  0.72510000  1.0
  C  C46  1  0.64251000  0.50293000  0.36161000  1.0
  C  C47  1  0.35750000  0.49706000  0.63839000  1.0
  C  C48  1  0.59682000  0.32213000  0.36623000  1.0
  C  C49  1  0.40318000  0.67786000  0.63377000  1.0
  C  C50  1  0.95900000  0.99614000  0.63299000  1.0
  C  C51  1  0.04098000  0.00386000  0.36701000  1.0
  C  C52  1  0.68853000  0.35050000  0.82788000  1.0
  C  C53  1  0.31147000  0.64951000  0.17212000  1.0
  C  C54  1  0.77217000  0.62659000  0.81347000  1.0
  C  C55  1  0.22783000  0.37341000  0.18653000  1.0
  N  N56  1  0.66890000  0.49290000  0.87377000  1.0
  N  N57  1  0.33110000  0.50710000  0.12623000  1.0
  N  N58  1  0.79850000  0.39729000  0.74347000  1.0
  N  N59  1  0.20150000  0.60272000  0.25653000  1.0
  N  N60  1  0.57156000  0.05479000  0.29170000  1.0
  N  N61  1  0.42844000  0.94520000  0.70829000  1.0
  N  N62  1  0.85299000  0.57441000  0.73274000  1.0
  N  N63  1  0.14701000  0.42559000  0.26727000  1.0
  O  O64  1  0.74694000  0.99307000  0.95042000  1.0
  O  O65  1  0.25307000  0.00693000  0.04958000  1.0
  O  O66  1  0.62996000  0.26142000  0.04749000  1.0
  O  O67  1  0.37004000  0.73857000  0.95251000  1.0
  O  O68  1  0.89053000  0.15708000  0.10330000  1.0
  O  O69  1  0.10947000  0.84293000  0.89670000  1.0
  O  O70  1  0.70695000  0.65519000  0.03358000  1.0
  O  O71  1  0.29305000  0.34481000  0.96642000  1.0
  O  O72  1  0.55452000  0.96281000  0.37055000  1.0
  O  O73  1  0.44548000  0.03719000  0.62945000  1.0
  O  O74  1  0.54336000  0.99593000  0.21938000  1.0
  O  O75  1  0.45666000  0.00406000  0.78061000  1.0
  O  O76  1  0.92625000  0.77016000  0.10237000  1.0
  O  O77  1  0.07375000  0.22984000  0.89762000  1.0
