# generated using pymatgen
data_CuH14C12(NO)6
_symmetry_space_group_name_H-M   'P 1'
_cell_length_a   7.94271000
_cell_length_b   10.03600000
_cell_length_c   10.14380000
_cell_angle_alpha   73.87900000
_cell_angle_beta   89.99980000
_cell_angle_gamma   89.99780000
_symmetry_Int_Tables_number   1
_chemical_formula_structural   CuH14C12(NO)6
_chemical_formula_sum   'Cu2 H28 C24 N12 O12'
_cell_volume   776.79716558
_cell_formula_units_Z   2
loop_
 _symmetry_equiv_pos_site_id
 _symmetry_equiv_pos_as_xyz
  1  'x, y, z'
loop_
 _atom_site_type_symbol
 _atom_site_label
 _atom_site_symmetry_multiplicity
 _atom_site_fract_x
 _atom_site_fract_y
 _atom_site_fract_z
 _atom_site_occupancy
  Cu  Cu0  1  0.00000000  0.00000000  0.00000000  1.0
  Cu  Cu1  1  0.50000000  0.50000000  0.50000000  1.0
  H  H2  1  0.84184000  0.02179000  0.74483000  1.0
  H  H3  1  0.65815000  0.52179000  0.24484000  1.0
  H  H4  1  0.15817000  0.97821000  0.25516000  1.0
  H  H5  1  0.34185000  0.47821000  0.75516000  1.0
  H  H6  1  0.75054000  0.60769000  0.71537000  1.0
  H  H7  1  0.74947000  0.10768000  0.21537000  1.0
  H  H8  1  0.24947000  0.39232000  0.28462000  1.0
  H  H9  1  0.25054000  0.89232000  0.78463000  1.0
  H  H10  1  0.73695000  0.87029000  0.60389000  1.0
  H  H11  1  0.76305000  0.37029000  0.10390000  1.0
  H  H12  1  0.26307000  0.12971000  0.39610000  1.0
  H  H13  1  0.23694000  0.62971000  0.89610000  1.0
  H  H14  1  0.05555000  0.55774000  0.09023000  1.0
  H  H15  1  0.44445000  0.05773000  0.59023000  1.0
  H  H16  1  0.94444000  0.44227000  0.90977000  1.0
  H  H17  1  0.55556000  0.94227000  0.40977000  1.0
  H  H18  1  0.95337000  0.81835000  0.28822000  1.0
  H  H19  1  0.54661000  0.31835000  0.78822000  1.0
  H  H20  1  0.04663000  0.18164000  0.71179000  1.0
  H  H21  1  0.45338000  0.68165000  0.21178000  1.0
  H  H22  1  0.09955000  0.72383000  0.10721000  1.0
  H  H23  1  0.40044000  0.22383000  0.60721000  1.0
  H  H24  1  0.90044000  0.27617000  0.89280000  1.0
  H  H25  1  0.59957000  0.77616000  0.39279000  1.0
  H  H26  1  0.79297000  0.82283000  0.19318000  1.0
  H  H27  1  0.70703000  0.32281000  0.69319000  1.0
  H  H28  1  0.20704000  0.17718000  0.80683000  1.0
  H  H29  1  0.29296000  0.67718000  0.30682000  1.0
  C  C30  1  0.37848000  0.95909000  0.01885000  1.0
  C  C31  1  0.12151000  0.45908000  0.51886000  1.0
  C  C32  1  0.62152000  0.04091000  0.98115000  1.0
  C  C33  1  0.87848000  0.54091000  0.48115000  1.0
  C  C34  1  0.44989000  0.09761000  0.94930000  1.0
  C  C35  1  0.05011000  0.59761000  0.44930000  1.0
  C  C36  1  0.55011000  0.90239000  0.05070000  1.0
  C  C37  1  0.94988000  0.40238000  0.55070000  1.0
  C  C38  1  0.93989000  0.71747000  0.95299000  1.0
  C  C39  1  0.56011000  0.21746000  0.45300000  1.0
  C  C40  1  0.06011000  0.28253000  0.04701000  1.0
  C  C41  1  0.43989000  0.78253000  0.54700000  1.0
  C  C42  1  0.85170000  0.90945000  0.78159000  1.0
  C  C43  1  0.64829000  0.40945000  0.28159000  1.0
  C  C44  1  0.14829000  0.09055000  0.21841000  1.0
  C  C45  1  0.35171000  0.59055000  0.71841000  1.0
  C  C46  1  0.80201000  0.68269000  0.76479000  1.0
  C  C47  1  0.69799000  0.18268000  0.26480000  1.0
  C  C48  1  0.19799000  0.31731000  0.23520000  1.0
  C  C49  1  0.30202000  0.81731000  0.73520000  1.0
  C  C50  1  0.79094000  0.82550000  0.70474000  1.0
  C  C51  1  0.70905000  0.32549000  0.20474000  1.0
  C  C52  1  0.20907000  0.17451000  0.29526000  1.0
  C  C53  1  0.29095000  0.67451000  0.79526000  1.0
  N  N54  1  0.92401000  0.85829000  0.90538000  1.0
  N  N55  1  0.57598000  0.35829000  0.40539000  1.0
  N  N56  1  0.07599000  0.14171000  0.09462000  1.0
  N  N57  1  0.42402000  0.64171000  0.59461000  1.0
  N  N58  1  0.87559000  0.62911000  0.88603000  1.0
  N  N59  1  0.62441000  0.12911000  0.38603000  1.0
  N  N60  1  0.12441000  0.37089000  0.11397000  1.0
  N  N61  1  0.37560000  0.87089000  0.61397000  1.0
  N  N62  1  0.02234000  0.66120000  0.07087000  1.0
  N  N63  1  0.47765000  0.16119000  0.57087000  1.0
  N  N64  1  0.97765000  0.33881000  0.92914000  1.0
  N  N65  1  0.52235000  0.83880000  0.42913000  1.0
  O  O66  1  0.87654000  0.88177000  0.22248000  1.0
  O  O67  1  0.62346000  0.38176000  0.72249000  1.0
  O  O68  1  0.12346000  0.11823000  0.77753000  1.0
  O  O69  1  0.37654000  0.61824000  0.27752000  1.0
  O  O70  1  0.23514000  0.90394000  0.04496000  1.0
  O  O71  1  0.26485000  0.40394000  0.54497000  1.0
  O  O72  1  0.76485000  0.09606000  0.95504000  1.0
  O  O73  1  0.73515000  0.59605000  0.45504000  1.0
  O  O74  1  0.39279000  0.21475000  0.88704000  1.0
  O  O75  1  0.10720000  0.71475000  0.38704000  1.0
  O  O76  1  0.60721000  0.78526000  0.11296000  1.0
  O  O77  1  0.89279000  0.28524000  0.61297000  1.0
