# generated using pymatgen
data_AlH3C4O7
_symmetry_space_group_name_H-M   'P 1'
_cell_length_a   6.67994000
_cell_length_b   8.87157000
_cell_length_c   8.87192000
_cell_angle_alpha   71.94110000
_cell_angle_beta   74.82710000
_cell_angle_gamma   74.83170000
_symmetry_Int_Tables_number   1
_chemical_formula_structural   AlH3C4O7
_chemical_formula_sum   'Al2 H6 C8 O14'
_cell_volume   473.01067924
_cell_formula_units_Z   2
loop_
 _symmetry_equiv_pos_site_id
 _symmetry_equiv_pos_as_xyz
  1  'x, y, z'
loop_
 _atom_site_type_symbol
 _atom_site_label
 _atom_site_symmetry_multiplicity
 _atom_site_fract_x
 _atom_site_fract_y
 _atom_site_fract_z
 _atom_site_occupancy
  Al  Al0  1  0.50004000  0.50002000  0.50000000  1.0
  Al  Al1  1  0.00004000  0.50002000  0.49999000  1.0
  H  H2  1  0.75005000  0.32865000  0.67132000  1.0
  H  H3  1  0.25000000  0.67135000  0.32864000  1.0
  H  H4  1  0.72155000  0.13416000  0.47475000  1.0
  H  H5  1  0.27845000  0.86581000  0.52526000  1.0
  H  H6  1  0.22153000  0.47477000  0.13417000  1.0
  H  H7  1  0.77846000  0.52524000  0.86578000  1.0
  C  C8  1  0.15434000  0.48426000  0.78673000  1.0
  C  C9  1  0.34566000  0.21324000  0.51575000  1.0
  C  C10  1  0.84566000  0.51576000  0.21326000  1.0
  C  C11  1  0.65435000  0.78675000  0.48427000  1.0
  C  C12  1  0.60352000  0.95772000  0.48823000  1.0
  C  C13  1  0.39646000  0.04227000  0.51179000  1.0
  C  C14  1  0.10354000  0.48825000  0.95772000  1.0
  C  C15  1  0.89646000  0.51175000  0.04227000  1.0
  O  O16  1  0.34760000  0.46422000  0.71749000  1.0
  O  O17  1  0.15241000  0.28250000  0.53583000  1.0
  O  O18  1  0.00222000  0.49901000  0.28142000  1.0
  O  O19  1  0.49782000  0.71853000  0.50100000  1.0
  O  O20  1  0.65240000  0.53584000  0.28248000  1.0
  O  O21  1  0.84763000  0.71751000  0.46418000  1.0
  O  O22  1  0.99779000  0.50100000  0.71854000  1.0
  O  O23  1  0.50218000  0.28142000  0.49902000  1.0
  O  O24  1  0.74985000  0.42164000  0.57838000  1.0
  O  O25  1  0.24994000  0.57839000  0.42162000  1.0
  O  O26  1  0.77546000  0.02013000  0.46846000  1.0
  O  O27  1  0.22451000  0.97989000  0.53160000  1.0
  O  O28  1  0.27548000  0.46846000  0.02013000  1.0
  O  O29  1  0.72452000  0.53157000  0.97986000  1.0
