# generated using pymatgen
data_BiH10C5S2Br2N
_symmetry_space_group_name_H-M   'P 1'
_cell_length_a   7.84890000
_cell_length_b   9.93193000
_cell_length_c   14.74790000
_cell_angle_alpha   90.00060000
_cell_angle_beta   90.00050000
_cell_angle_gamma   88.69200000
_symmetry_Int_Tables_number   1
_chemical_formula_structural   BiH10C5S2Br2N
_chemical_formula_sum   'Bi4 H40 C20 S8 Br8 N4'
_cell_volume   1149.36892727
_cell_formula_units_Z   4
loop_
 _symmetry_equiv_pos_site_id
 _symmetry_equiv_pos_as_xyz
  1  'x, y, z'
loop_
 _atom_site_type_symbol
 _atom_site_label
 _atom_site_symmetry_multiplicity
 _atom_site_fract_x
 _atom_site_fract_y
 _atom_site_fract_z
 _atom_site_occupancy
  Bi  Bi0  1  0.27017000  0.78230000  0.71168000  1.0
  Bi  Bi1  1  0.22983000  0.21771000  0.21168000  1.0
  Bi  Bi2  1  0.72982000  0.21770000  0.28831000  1.0
  Bi  Bi3  1  0.77017000  0.78229000  0.78832000  1.0
  H  H4  1  0.10757000  0.56991000  0.41103000  1.0
  H  H5  1  0.39242000  0.43009000  0.91103000  1.0
  H  H6  1  0.89243000  0.43009000  0.58897000  1.0
  H  H7  1  0.60758000  0.56991000  0.08897000  1.0
  H  H8  1  0.92457000  0.61488000  0.34741000  1.0
  H  H9  1  0.57542000  0.38512000  0.84741000  1.0
  H  H10  1  0.07542000  0.38512000  0.65259000  1.0
  H  H11  1  0.42458000  0.61488000  0.15259000  1.0
  H  H12  1  0.80814000  0.84516000  0.36738000  1.0
  H  H13  1  0.69185000  0.15484000  0.86738000  1.0
  H  H14  1  0.19186000  0.15484000  0.63262000  1.0
  H  H15  1  0.30815000  0.84516000  0.13262000  1.0
  H  H16  1  0.80249000  0.90383000  0.48040000  1.0
  H  H17  1  0.69751000  0.09617000  0.98040000  1.0
  H  H18  1  0.19750000  0.09617000  0.51960000  1.0
  H  H19  1  0.30249000  0.90383000  0.01960000  1.0
  H  H20  1  0.18853000  0.66250000  0.26035000  1.0
  H  H21  1  0.31146000  0.33751000  0.76035000  1.0
  H  H22  1  0.81146000  0.33751000  0.73965000  1.0
  H  H23  1  0.68854000  0.66250000  0.23965000  1.0
  H  H24  1  0.26077000  0.77060000  0.34787000  1.0
  H  H25  1  0.23923000  0.22941000  0.84788000  1.0
  H  H26  1  0.73923000  0.22940000  0.65213000  1.0
  H  H27  1  0.76077000  0.77060000  0.15213000  1.0
  H  H28  1  0.07654000  0.81655000  0.28317000  1.0
  H  H29  1  0.42345000  0.18345000  0.78317000  1.0
  H  H30  1  0.92345000  0.18346000  0.71683000  1.0
  H  H31  1  0.57655000  0.81655000  0.21683000  1.0
  H  H32  1  0.54114000  0.77729000  0.44644000  1.0
  H  H33  1  0.95886000  0.22271000  0.94644000  1.0
  H  H34  1  0.45885000  0.22270000  0.55355000  1.0
  H  H35  1  0.04114000  0.77729000  0.05356000  1.0
  H  H36  1  0.66209000  0.69029000  0.53042000  1.0
  H  H37  1  0.83791000  0.30972000  0.03042000  1.0
  H  H38  1  0.33790000  0.30971000  0.46958000  1.0
  H  H39  1  0.16209000  0.69028000  0.96958000  1.0
  H  H40  1  0.66303000  0.63090000  0.41652000  1.0
  H  H41  1  0.83697000  0.36910000  0.91652000  1.0
  H  H42  1  0.33698000  0.36910000  0.58348000  1.0
  H  H43  1  0.16303000  0.63090000  0.08349000  1.0
  C  C44  1  0.06248000  0.75827000  0.53075000  1.0
  C  C45  1  0.43752000  0.24173000  0.03075000  1.0
  C  C46  1  0.93752000  0.24173000  0.46925000  1.0
  C  C47  1  0.56248000  0.75827000  0.96925000  1.0
  C  C48  1  0.03666000  0.65563000  0.38116000  1.0
  C  C49  1  0.46334000  0.34437000  0.88116000  1.0
  C  C50  1  0.96334000  0.34437000  0.61884000  1.0
  C  C51  1  0.53666000  0.65563000  0.11884000  1.0
  C  C52  1  0.80908000  0.81258000  0.43857000  1.0
  C  C53  1  0.69092000  0.18742000  0.93857000  1.0
  C  C54  1  0.19092000  0.18742000  0.56143000  1.0
  C  C55  1  0.30908000  0.81258000  0.06143000  1.0
  C  C56  1  0.14707000  0.73176000  0.31439000  1.0
  C  C57  1  0.35292000  0.26824000  0.81439000  1.0
  C  C58  1  0.85292000  0.26824000  0.68561000  1.0
  C  C59  1  0.64708000  0.73176000  0.18561000  1.0
  C  C60  1  0.66086000  0.72158000  0.45909000  1.0
  C  C61  1  0.83913000  0.27842000  0.95910000  1.0
  C  C62  1  0.33914000  0.27842000  0.54090000  1.0
  C  C63  1  0.16087000  0.72158000  0.04091000  1.0
  S  S64  1  0.99725000  0.87303000  0.61359000  1.0
  S  S65  1  0.50275000  0.12697000  0.11359000  1.0
  S  S66  1  0.00274000  0.12697000  0.38641000  1.0
  S  S67  1  0.49725000  0.87303000  0.88641000  1.0
  S  S68  1  0.24846000  0.66633000  0.54915000  1.0
  S  S69  1  0.25153000  0.33367000  0.04915000  1.0
  S  S70  1  0.75154000  0.33366000  0.45085000  1.0
  S  S71  1  0.74847000  0.66633000  0.95085000  1.0
  Br  Br72  1  0.52984000  0.96575000  0.65810000  1.0
  Br  Br73  1  0.97015000  0.03423000  0.15810000  1.0
  Br  Br74  1  0.47015000  0.03423000  0.34190000  1.0
  Br  Br75  1  0.02985000  0.96577000  0.84190000  1.0
  Br  Br76  1  0.06209000  0.57631000  0.79331000  1.0
  Br  Br77  1  0.43791000  0.42368000  0.29331000  1.0
  Br  Br78  1  0.93790000  0.42368000  0.20669000  1.0
  Br  Br79  1  0.56209000  0.57632000  0.70669000  1.0
  N  N80  1  0.97415000  0.74360000  0.45483000  1.0
  N  N81  1  0.52585000  0.25640000  0.95483000  1.0
  N  N82  1  0.02585000  0.25640000  0.54517000  1.0
  N  N83  1  0.47416000  0.74360000  0.04517000  1.0
