# generated using pymatgen
data_ZnH8C6N2(ClO)2
_symmetry_space_group_name_H-M   'P 1'
_cell_length_a   4.87826000
_cell_length_b   9.97315000
_cell_length_c   10.37860000
_cell_angle_alpha   90.00010000
_cell_angle_beta   90.00020000
_cell_angle_gamma   102.33900000
_symmetry_Int_Tables_number   1
_chemical_formula_structural   ZnH8C6N2(ClO)2
_chemical_formula_sum   'Zn2 H16 C12 N4 Cl4 O4'
_cell_volume   493.27184874
_cell_formula_units_Z   2
loop_
 _symmetry_equiv_pos_site_id
 _symmetry_equiv_pos_as_xyz
  1  'x, y, z'
loop_
 _atom_site_type_symbol
 _atom_site_label
 _atom_site_symmetry_multiplicity
 _atom_site_fract_x
 _atom_site_fract_y
 _atom_site_fract_z
 _atom_site_occupancy
  Zn  Zn0  1  0.96874000  0.06834000  0.23724000  1.0
  Zn  Zn1  1  0.96874000  0.56834000  0.76275000  1.0
  H  H2  1  0.53344000  0.37199000  0.05851000  1.0
  H  H3  1  0.53344000  0.87199000  0.94149000  1.0
  H  H4  1  0.50380000  0.26395000  0.19831000  1.0
  H  H5  1  0.50380000  0.76395000  0.80169000  1.0
  H  H6  1  0.83121000  0.37405000  0.15872000  1.0
  H  H7  1  0.83121000  0.87405000  0.84127000  1.0
  H  H8  1  0.70737000  0.43541000  0.41697000  1.0
  H  H9  1  0.70736000  0.93541000  0.58304000  1.0
  H  H10  1  0.47003000  0.65623000  0.49073000  1.0
  H  H11  1  0.47003000  0.15623000  0.50927000  1.0
  H  H12  1  0.30432000  0.57055000  0.09386000  1.0
  H  H13  1  0.30431000  0.07055000  0.90614000  1.0
  H  H14  1  0.08678000  0.76548000  0.36732000  1.0
  H  H15  1  0.08677000  0.26548000  0.63268000  1.0
  H  H16  1  0.07339000  0.74765000  0.19715000  1.0
  H  H17  1  0.07339000  0.24765000  0.80285000  1.0
  C  C18  1  0.60373000  0.36357000  0.15746000  1.0
  C  C19  1  0.60373000  0.86357000  0.84254000  1.0
  C  C20  1  0.58886000  0.49710000  0.36343000  1.0
  C  C21  1  0.58884000  0.99710000  0.63657000  1.0
  C  C22  1  0.47412000  0.60516000  0.39896000  1.0
  C  C23  1  0.47411000  0.10516000  0.60104000  1.0
  C  C24  1  0.38247000  0.56288000  0.19113000  1.0
  C  C25  1  0.38247000  0.06288000  0.80887000  1.0
  C  C26  1  0.21449000  0.76175000  0.28076000  1.0
  C  C27  1  0.21449000  0.26175000  0.71924000  1.0
  C  C28  1  0.42773000  0.89749000  0.26707000  1.0
  C  C29  1  0.42772000  0.39748000  0.73293000  1.0
  N  N30  1  0.52870000  0.47285000  0.23411000  1.0
  N  N31  1  0.52869000  0.97285000  0.76589000  1.0
  N  N32  1  0.34495000  0.64387000  0.29054000  1.0
  N  N33  1  0.34494000  0.14387000  0.70946000  1.0
  Cl  Cl34  1  0.93689000  0.13672000  0.03328000  1.0
  Cl  Cl35  1  0.93690000  0.63673000  0.96671000  1.0
  Cl  Cl36  1  0.01070000  0.23060000  0.38905000  1.0
  Cl  Cl37  1  0.01070000  0.73061000  0.61096000  1.0
  O  O38  1  0.33917000  0.00672000  0.25177000  1.0
  O  O39  1  0.33917000  0.50672000  0.74823000  1.0
  O  O40  1  0.68674000  0.89348000  0.27220000  1.0
  O  O41  1  0.68674000  0.39348000  0.72780000  1.0
