# generated using pymatgen
data_CdH30C26(NO2)4
_symmetry_space_group_name_H-M   'P 1'
_cell_length_a   7.43550000
_cell_length_b   9.03929000
_cell_length_c   10.94110000
_cell_angle_alpha   99.77410000
_cell_angle_beta   102.07700000
_cell_angle_gamma   113.07900000
_symmetry_Int_Tables_number   1
_chemical_formula_structural   CdH30C26(NO2)4
_chemical_formula_sum   'Cd1 H30 C26 N4 O8'
_cell_volume   635.10270686
_cell_formula_units_Z   1
loop_
 _symmetry_equiv_pos_site_id
 _symmetry_equiv_pos_as_xyz
  1  'x, y, z'
loop_
 _atom_site_type_symbol
 _atom_site_label
 _atom_site_symmetry_multiplicity
 _atom_site_fract_x
 _atom_site_fract_y
 _atom_site_fract_z
 _atom_site_occupancy
  Cd  Cd0  1  0.00000000  0.00000000  0.00000000  1.0
  H  H1  1  0.13830000  0.02205000  0.79861000  1.0
  H  H2  1  0.86170000  0.97795000  0.20139000  1.0
  H  H3  1  0.19325000  0.87424000  0.82526000  1.0
  H  H4  1  0.80675000  0.12576000  0.17474000  1.0
  H  H5  1  0.87146000  0.68211000  0.29722000  1.0
  H  H6  1  0.12854000  0.31789000  0.70278000  1.0
  H  H7  1  0.46758000  0.22896000  0.16597000  1.0
  H  H8  1  0.53242000  0.77104000  0.83403000  1.0
  H  H9  1  0.02693000  0.35915000  0.98607000  1.0
  H  H10  1  0.97306000  0.64085000  0.01393000  1.0
  H  H11  1  0.27790000  0.66949000  0.06639000  1.0
  H  H12  1  0.72210000  0.33051000  0.93361000  1.0
  H  H13  1  0.63271000  0.75241000  0.19979000  1.0
  H  H14  1  0.36729000  0.24758000  0.80021000  1.0
  H  H15  1  0.12393000  0.63904000  0.46048000  1.0
  H  H16  1  0.87607000  0.36096000  0.53952000  1.0
  H  H17  1  0.19111000  0.63874000  0.31723000  1.0
  H  H18  1  0.80888000  0.36127000  0.68277000  1.0
  H  H19  1  0.20936000  0.36645000  0.31028000  1.0
  H  H20  1  0.79064000  0.63355000  0.68972000  1.0
  H  H21  1  0.13626000  0.35862000  0.45209000  1.0
  H  H22  1  0.86374000  0.64138000  0.54791000  1.0
  H  H23  1  0.52284000  0.64071000  0.43387000  1.0
  H  H24  1  0.47716000  0.35929000  0.56613000  1.0
  H  H25  1  0.45034000  0.63118000  0.57570000  1.0
  H  H26  1  0.54966000  0.36882000  0.42430000  1.0
  H  H27  1  0.16906000  0.97627000  0.53205000  1.0
  H  H28  1  0.83094000  0.02373000  0.46794000  1.0
  H  H29  1  0.45726000  0.01557000  0.72065000  1.0
  H  H30  1  0.54274000  0.98442000  0.27935000  1.0
  C  C31  1  0.58158000  0.49856000  0.19373000  1.0
  C  C32  1  0.41842000  0.50144000  0.80627000  1.0
  C  C33  1  0.43267000  0.33019000  0.14675000  1.0
  C  C34  1  0.56733000  0.66981000  0.85325000  1.0
  C  C35  1  0.18454000  0.40471000  0.04678000  1.0
  C  C36  1  0.81545000  0.59529000  0.95322000  1.0
  C  C37  1  0.32234000  0.57411000  0.09079000  1.0
  C  C38  1  0.67766000  0.42589000  0.90921000  1.0
  C  C39  1  0.52151000  0.62127000  0.16556000  1.0
  C  C40  1  0.47849000  0.37872000  0.83444000  1.0
  C  C41  1  0.88608000  0.45745000  0.29099000  1.0
  C  C42  1  0.11392000  0.54255000  0.70902000  1.0
  C  C43  1  0.11084000  0.55437000  0.37032000  1.0
  C  C44  1  0.88916000  0.44563000  0.62969000  1.0
  C  C45  1  0.21827000  0.44584000  0.40149000  1.0
  C  C46  1  0.78172000  0.55416000  0.59851000  1.0
  C  C47  1  0.44290000  0.55203000  0.48440000  1.0
  C  C48  1  0.55710000  0.44797000  0.51560000  1.0
  C  C49  1  0.16448000  0.94654000  0.28026000  1.0
  C  C50  1  0.83552000  0.05346000  0.71974000  1.0
  C  C51  1  0.33898000  0.97632000  0.39430000  1.0
  C  C52  1  0.66102000  0.02368000  0.60570000  1.0
  C  C53  1  0.31421000  0.98630000  0.51868000  1.0
  C  C54  1  0.68579000  0.01370000  0.48132000  1.0
  C  C55  1  0.47432000  0.00921000  0.62369000  1.0
  C  C56  1  0.52568000  0.99079000  0.37631000  1.0
  N  N57  1  0.23970000  0.28709000  0.07573000  1.0
  N  N58  1  0.76030000  0.71291000  0.92427000  1.0
  N  N59  1  0.78588000  0.55341000  0.26725000  1.0
  N  N60  1  0.21412000  0.44659000  0.73275000  1.0
  O  O61  1  0.79657000  0.30212000  0.25022000  1.0
  O  O62  1  0.20343000  0.69788000  0.74978000  1.0
  O  O63  1  0.20125000  0.95779000  0.17282000  1.0
  O  O64  1  0.79875000  0.04221000  0.82718000  1.0
  O  O65  1  0.98912000  0.90957000  0.29870000  1.0
  O  O66  1  0.01088000  0.09043000  0.70130000  1.0
  O  O67  1  0.20723000  0.98530000  0.86855000  1.0
  O  O68  1  0.79277000  0.01470000  0.13145000  1.0
