# generated using pymatgen
data_Zn6H31C40S3ClO33
_symmetry_space_group_name_H-M   'P 1'
_cell_length_a   18.67240000
_cell_length_b   18.76240000
_cell_length_c   18.81680000
_cell_angle_alpha   110.01800000
_cell_angle_beta   108.80300000
_cell_angle_gamma   109.00700000
_symmetry_Int_Tables_number   1
_chemical_formula_structural   Zn6H31C40S3ClO33
_chemical_formula_sum   'Zn6 H31 C40 S3 Cl1 O33'
_cell_volume   5110.57721417
_cell_formula_units_Z   1
loop_
 _symmetry_equiv_pos_site_id
 _symmetry_equiv_pos_as_xyz
  1  'x, y, z'
loop_
 _atom_site_type_symbol
 _atom_site_label
 _atom_site_symmetry_multiplicity
 _atom_site_fract_x
 _atom_site_fract_y
 _atom_site_fract_z
 _atom_site_occupancy
  Zn  Zn0  1  0.07979000  0.50667000  0.08902000  1.0
  Zn  Zn1  1  0.95588000  0.49741000  0.95553000  1.0
  Zn  Zn2  1  0.93043000  0.93875000  0.48418000  1.0
  Zn  Zn3  1  0.05747000  0.06190000  0.48509000  1.0
  Zn  Zn4  1  0.48292000  0.05310000  0.05034000  1.0
  Zn  Zn5  1  0.47605000  0.92908000  0.91727000  1.0
  H  H6  1  0.02431000  0.64905000  0.25309000  1.0
  H  H7  1  0.92547000  0.84734000  0.19703000  1.0
  H  H8  1  0.10859000  0.79839000  0.17206000  1.0
  H  H9  1  0.08947000  0.90926000  0.25546000  1.0
  H  H10  1  0.71092000  0.12608000  0.94646000  1.0
  H  H11  1  0.76101000  0.32128000  0.95984000  1.0
  H  H12  1  0.89200000  0.13613000  0.62852000  1.0
  H  H13  1  0.08315000  0.27532000  0.71261000  1.0
  H  H14  1  0.90380000  0.28867000  0.71998000  1.0
  H  H15  1  0.91629000  0.62938000  0.20411000  1.0
  H  H16  1  0.26573000  0.67411000  0.85907000  1.0
  H  H17  1  0.31949000  0.81102000  0.04215000  1.0
  H  H18  1  0.14079000  0.59630000  0.88149000  1.0
  H  H19  1  0.29025000  0.68365000  0.06733000  1.0
  H  H20  1  0.21876000  0.87053000  0.75508000  1.0
  H  H21  1  0.26581000  0.06061000  0.86517000  1.0
  H  H22  1  0.07564000  0.86003000  0.66516000  1.0
  H  H23  1  0.20950000  0.03832000  0.70802000  1.0
  H  H24  1  0.70908000  0.12772000  0.29192000  1.0
  H  H25  1  0.96029000  0.74578000  0.33802000  1.0
  H  H26  1  0.69591000  0.96997000  0.15185000  1.0
  H  H27  1  0.72143000  0.94312000  0.28685000  1.0
  H  H28  1  0.07170000  0.78366000  0.37035000  1.0
  H  H29  1  0.13903000  0.77114000  0.25395000  1.0
  H  H30  1  0.15190000  0.90339000  0.34391000  1.0
  H  H31  1  0.94827000  0.75809000  0.09402000  1.0
  H  H32  1  0.86780000  0.67093000  0.08794000  1.0
  H  H33  1  0.87269000  0.76262000  0.21396000  1.0
  H  H34  1  0.91721000  0.42791000  0.26068000  1.0
  H  H35  1  0.98955000  0.18715000  0.92944000  1.0
  H  H36  1  0.86928000  0.24541000  0.32878000  1.0
  C  C37  1  0.92448000  0.40161000  0.06105000  1.0
  C  C38  1  0.01274000  0.83357000  0.29470000  1.0
  C  C39  1  0.09175000  0.86519000  0.28133000  1.0
  C  C40  1  0.92967000  0.79465000  0.20815000  1.0
  C  C41  1  0.69436000  0.23379000  0.99715000  1.0
  C  C42  1  0.66947000  0.14860000  0.96524000  1.0
  C  C43  1  0.77236000  0.29843000  0.00666000  1.0
  C  C44  1  0.85614000  0.33719000  0.06703000  1.0
  C  C45  1  0.95122000  0.19839000  0.67717000  1.0
  C  C46  1  0.02325000  0.21305000  0.67019000  1.0
  C  C47  1  0.94504000  0.26204000  0.74219000  1.0
  C  C48  1  0.99766000  0.62936000  0.10190000  1.0
  C  C49  1  0.98503000  0.29301000  0.82839000  1.0
  C  C50  1  0.26801000  0.69908000  0.92195000  1.0
  C  C51  1  0.32190000  0.78385000  0.98215000  1.0
  C  C52  1  0.20654000  0.64251000  0.93602000  1.0
  C  C53  1  0.22449000  0.64492000  0.01248000  1.0
  C  C54  1  0.07817000  0.97370000  0.60338000  1.0
  C  C55  1  0.01445000  0.90524000  0.36583000  1.0
  C  C56  1  0.85447000  0.98795000  0.38004000  1.0
  C  C57  1  0.02217000  0.14356000  0.60142000  1.0
  C  C58  1  0.35004000  0.00670000  0.90387000  1.0
  C  C59  1  0.15601000  0.59343000  0.02513000  1.0
  C  C60  1  0.59164000  0.08189000  0.95509000  1.0
  C  C61  1  0.60700000  0.01948000  0.11826000  1.0
  C  C62  1  0.37969000  0.84914000  0.97101000  1.0
  C  C63  1  0.21156000  0.92860000  0.76815000  1.0
  C  C64  1  0.27241000  0.00234000  0.84392000  1.0
  C  C65  1  0.13773000  0.92029000  0.70128000  1.0
  C  C66  1  0.14626000  0.98109000  0.67717000  1.0
  C  C67  1  0.72398000  0.07619000  0.26588000  1.0
  C  C68  1  0.67893000  0.01874000  0.18044000  1.0
  C  C69  1  0.79553000  0.07344000  0.32438000  1.0
  C  C70  1  0.98323000  0.36742000  0.88934000  1.0
  C  C71  1  0.78633000  0.99986000  0.32632000  1.0
  C  C72  1  0.98488000  0.67890000  0.23554000  1.0
  C  C73  1  0.00826000  0.76024000  0.31610000  1.0
  C  C74  1  0.09125000  0.78556000  0.21871000  1.0
  C  C75  1  0.93186000  0.72941000  0.13247000  1.0
  C  C76  1  0.99990000  0.70446000  0.16942000  1.0
  S  S77  1  0.89059000  0.31546000  0.15387000  1.0
  S  S78  1  0.05018000  0.25236000  0.87596000  1.0
  S  S79  1  0.89694000  0.17549000  0.39333000  1.0
  Cl  Cl80  1  0.63406000  0.28086000  0.02264000  1.0
  O  O81  1  0.00406000  0.42985000  0.11315000  1.0
  O  O82  1  0.10549000  0.02261000  0.57432000  1.0
  O  O83  1  0.96015000  0.88160000  0.39111000  1.0
  O  O84  1  0.06924000  0.98504000  0.39549000  1.0
  O  O85  1  0.82738000  0.93060000  0.40191000  1.0
  O  O86  1  0.93207000  0.03292000  0.39933000  1.0
  O  O87  1  0.96568000  0.06548000  0.57086000  1.0
  O  O88  1  0.07924000  0.16685000  0.57758000  1.0
  O  O89  1  0.38673000  0.06361000  0.98498000  1.0
  O  O90  1  0.37602000  0.95519000  0.87221000  1.0
  O  O91  1  0.55992000  0.10613000  0.00286000  1.0
  O  O92  1  0.89714000  0.42205000  0.00438000  1.0
  O  O93  1  0.56279000  0.00192000  0.89942000  1.0
  O  O94  1  0.58058000  0.07269000  0.14791000  1.0
  O  O95  1  0.57652000  0.96659000  0.03874000  1.0
  O  O96  1  0.40637000  0.92799000  0.02425000  1.0
  O  O97  1  0.39878000  0.82424000  0.91004000  1.0
  O  O98  1  0.04935000  0.60322000  0.13057000  1.0
  O  O99  1  0.94487000  0.59553000  0.02079000  1.0
  O  O100  1  0.18109000  0.57975000  0.08934000  1.0
  O  O101  1  0.07744000  0.56706000  0.97316000  1.0
  O  O102  1  0.03633000  0.40292000  0.96880000  1.0
  O  O103  1  0.92990000  0.39185000  0.85732000  1.0
  O  O104  1  0.99746000  0.91980000  0.57243000  1.0
  O  O105  1  0.81769000  0.27532000  0.16487000  1.0
  O  O106  1  0.94494000  0.27799000  0.14519000  1.0
  O  O107  1  0.95280000  0.41327000  0.23619000  1.0
  O  O108  1  0.01877000  0.16339000  0.81399000  1.0
  O  O109  1  0.13966000  0.31704000  0.91952000  1.0
  O  O110  1  0.02414000  0.24891000  0.94943000  1.0
  O  O111  1  0.92210000  0.20026000  0.48221000  1.0
  O  O112  1  0.95460000  0.17433000  0.35809000  1.0
  O  O113  1  0.86415000  0.24178000  0.37785000  1.0
