# generated using pymatgen
data_CuH6C5NO3
_symmetry_space_group_name_H-M   'P 1'
_cell_length_a   6.01443000
_cell_length_b   10.10720000
_cell_length_c   10.95240000
_cell_angle_alpha   101.83900000
_cell_angle_beta   90.00000000
_cell_angle_gamma   89.99970000
_symmetry_Int_Tables_number   1
_chemical_formula_structural   CuH6C5NO3
_chemical_formula_sum   'Cu4 H24 C20 N4 O12'
_cell_volume   651.62333567
_cell_formula_units_Z   4
loop_
 _symmetry_equiv_pos_site_id
 _symmetry_equiv_pos_as_xyz
  1  'x, y, z'
loop_
 _atom_site_type_symbol
 _atom_site_label
 _atom_site_symmetry_multiplicity
 _atom_site_fract_x
 _atom_site_fract_y
 _atom_site_fract_z
 _atom_site_occupancy
  Cu  Cu0  1  0.01119000  0.90438000  0.20329000  1.0
  Cu  Cu1  1  0.51120000  0.59562000  0.29671000  1.0
  Cu  Cu2  1  0.98878000  0.09561000  0.79671000  1.0
  Cu  Cu3  1  0.48879000  0.40439000  0.70330000  1.0
  H  H4  1  0.61657000  0.84374000  0.68270000  1.0
  H  H5  1  0.11657000  0.65625000  0.81730000  1.0
  H  H6  1  0.38348000  0.15628000  0.31732000  1.0
  H  H7  1  0.88344000  0.34372000  0.18269000  1.0
  H  H8  1  0.46077000  0.89177000  0.56037000  1.0
  H  H9  1  0.96076000  0.60822000  0.93963000  1.0
  H  H10  1  0.53926000  0.10825000  0.43966000  1.0
  H  H11  1  0.03925000  0.39175000  0.06035000  1.0
  H  H12  1  0.72042000  0.97146000  0.60605000  1.0
  H  H13  1  0.22042000  0.52854000  0.89395000  1.0
  H  H14  1  0.27962000  0.02856000  0.39396000  1.0
  H  H15  1  0.77960000  0.47144000  0.10605000  1.0
  H  H16  1  0.07130000  0.66254000  0.47433000  1.0
  H  H17  1  0.57129000  0.83746000  0.02566000  1.0
  H  H18  1  0.92869000  0.33746000  0.52567000  1.0
  H  H19  1  0.42868000  0.16254000  0.97433000  1.0
  H  H20  1  0.96829000  0.69867000  0.63092000  1.0
  H  H21  1  0.46828000  0.80133000  0.86908000  1.0
  H  H22  1  0.03173000  0.30134000  0.36908000  1.0
  H  H23  1  0.53170000  0.19867000  0.13092000  1.0
  H  H24  1  0.08303000  0.83091000  0.56437000  1.0
  H  H25  1  0.58302000  0.66909000  0.93562000  1.0
  H  H26  1  0.91700000  0.16909000  0.43562000  1.0
  H  H27  1  0.41697000  0.33092000  0.06438000  1.0
  C  C28  1  0.56855000  0.55928000  0.53488000  1.0
  C  C29  1  0.06853000  0.94071000  0.96512000  1.0
  C  C30  1  0.43144000  0.44074000  0.46514000  1.0
  C  C31  1  0.93142000  0.05926000  0.03486000  1.0
  C  C32  1  0.75287000  0.76769000  0.49820000  1.0
  C  C33  1  0.25286000  0.73231000  0.00180000  1.0
  C  C34  1  0.24714000  0.23232000  0.50181000  1.0
  C  C35  1  0.74712000  0.26769000  0.99819000  1.0
  C  C36  1  0.78349000  0.81658000  0.37489000  1.0
  C  C37  1  0.28347000  0.68343000  0.12511000  1.0
  C  C38  1  0.21655000  0.18345000  0.62512000  1.0
  C  C39  1  0.71652000  0.31657000  0.87489000  1.0
  C  C40  1  0.98508000  0.73770000  0.54516000  1.0
  C  C41  1  0.48507000  0.76230000  0.95484000  1.0
  C  C42  1  0.01494000  0.26231000  0.45484000  1.0
  C  C43  1  0.51491000  0.23770000  0.04516000  1.0
  C  C44  1  0.62901000  0.87572000  0.59309000  1.0
  C  C45  1  0.12901000  0.62427000  0.90691000  1.0
  C  C46  1  0.37102000  0.12430000  0.40692000  1.0
  C  C47  1  0.87099000  0.37571000  0.09308000  1.0
  N  N48  1  0.62025000  0.64427000  0.46427000  1.0
  N  N49  1  0.12023000  0.85572000  0.03573000  1.0
  N  N50  1  0.37974000  0.35574000  0.53574000  1.0
  N  N51  1  0.87972000  0.14425000  0.96426000  1.0
  O  O52  1  0.89665000  0.92242000  0.37402000  1.0
  O  O53  1  0.39663000  0.57757000  0.12599000  1.0
  O  O54  1  0.10338000  0.07758000  0.62600000  1.0
  O  O55  1  0.60337000  0.42243000  0.87401000  1.0
  O  O56  1  0.61770000  0.56507000  0.64997000  1.0
  O  O57  1  0.11768000  0.93491000  0.85003000  1.0
  O  O58  1  0.38229000  0.43494000  0.35004000  1.0
  O  O59  1  0.88226000  0.06506000  0.14995000  1.0
  O  O60  1  0.70230000  0.74687000  0.27363000  1.0
  O  O61  1  0.20229000  0.75313000  0.22638000  1.0
  O  O62  1  0.29772000  0.25314000  0.72638000  1.0
  O  O63  1  0.79771000  0.24686000  0.77362000  1.0
