# generated using pymatgen
data_Zn3H26C42(NO3)4
_symmetry_space_group_name_H-M   'P 1'
_cell_length_a   15.19590000
_cell_length_b   15.19600000
_cell_length_c   21.65640000
_cell_angle_alpha   90.00030000
_cell_angle_beta   89.99980000
_cell_angle_gamma   89.99580000
_symmetry_Int_Tables_number   1
_chemical_formula_structural   Zn3H26C42(NO3)4
_chemical_formula_sum   'Zn12 H104 C168 N16 O48'
_cell_volume   5000.82866166
_cell_formula_units_Z   4
loop_
 _symmetry_equiv_pos_site_id
 _symmetry_equiv_pos_as_xyz
  1  'x, y, z'
loop_
 _atom_site_type_symbol
 _atom_site_label
 _atom_site_symmetry_multiplicity
 _atom_site_fract_x
 _atom_site_fract_y
 _atom_site_fract_z
 _atom_site_occupancy
  Zn  Zn0  1  0.20883000  0.20882000  0.74999000  1.0
  Zn  Zn1  1  0.70885000  0.29114000  0.00000000  1.0
  Zn  Zn2  1  0.79117000  0.79117000  0.25000000  1.0
  Zn  Zn3  1  0.29114000  0.70885000  0.49998000  1.0
  Zn  Zn4  1  0.15180000  0.23537000  0.90340000  1.0
  Zn  Zn5  1  0.73535000  0.34820000  0.15339000  1.0
  Zn  Zn6  1  0.84820000  0.76463000  0.40339000  1.0
  Zn  Zn7  1  0.26463000  0.65179000  0.65338000  1.0
  Zn  Zn8  1  0.65181000  0.26464000  0.84661000  1.0
  Zn  Zn9  1  0.76464000  0.84819000  0.09660000  1.0
  Zn  Zn10  1  0.34820000  0.73536000  0.34660000  1.0
  Zn  Zn11  1  0.23538000  0.15182000  0.59660000  1.0
  H  H12  1  0.96455000  0.13076000  0.70005000  1.0
  H  H13  1  0.63073000  0.53546000  0.95005000  1.0
  H  H14  1  0.03545000  0.86925000  0.20004000  1.0
  H  H15  1  0.36925000  0.46454000  0.45003000  1.0
  H  H16  1  0.46453000  0.36927000  0.04996000  1.0
  H  H17  1  0.86923000  0.03545000  0.29995000  1.0
  H  H18  1  0.53546000  0.63073000  0.54995000  1.0
  H  H19  1  0.13077000  0.96455000  0.79994000  1.0
  H  H20  1  0.81054000  0.12320000  0.65903000  1.0
  H  H21  1  0.62317000  0.68947000  0.90903000  1.0
  H  H22  1  0.18946000  0.87680000  0.15902000  1.0
  H  H23  1  0.37681000  0.31054000  0.40901000  1.0
  H  H24  1  0.31052000  0.37682000  0.09098000  1.0
  H  H25  1  0.87679000  0.18947000  0.34098000  1.0
  H  H26  1  0.68947000  0.62318000  0.59097000  1.0
  H  H27  1  0.12321000  0.81053000  0.84096000  1.0
  H  H28  1  0.86061000  0.24952000  0.86525000  1.0
  H  H29  1  0.74951000  0.63940000  0.11523000  1.0
  H  H30  1  0.13938000  0.75049000  0.36523000  1.0
  H  H31  1  0.25050000  0.36061000  0.61523000  1.0
  H  H32  1  0.36061000  0.25049000  0.88477000  1.0
  H  H33  1  0.75049000  0.13940000  0.13475000  1.0
  H  H34  1  0.63939000  0.74952000  0.38476000  1.0
  H  H35  1  0.24952000  0.86060000  0.63475000  1.0
  H  H36  1  0.67846000  0.11723000  0.63342000  1.0
  H  H37  1  0.61719000  0.82155000  0.88342000  1.0
  H  H38  1  0.32154000  0.88278000  0.13341000  1.0
  H  H39  1  0.38281000  0.17845000  0.38341000  1.0
  H  H40  1  0.17843000  0.38279000  0.11659000  1.0
  H  H41  1  0.88277000  0.32155000  0.36658000  1.0
  H  H42  1  0.82155000  0.61721000  0.61658000  1.0
  H  H43  1  0.11722000  0.67845000  0.86658000  1.0
  H  H44  1  0.51819000  0.11765000  0.60987000  1.0
  H  H45  1  0.61761000  0.98182000  0.85985000  1.0
  H  H46  1  0.48182000  0.88236000  0.10986000  1.0
  H  H47  1  0.38238000  0.01819000  0.35984000  1.0
  H  H48  1  0.01817000  0.38237000  0.14015000  1.0
  H  H49  1  0.88236000  0.48182000  0.39014000  1.0
  H  H50  1  0.98182000  0.61763000  0.64015000  1.0
  H  H51  1  0.11765000  0.51818000  0.89013000  1.0
  H  H52  1  0.47488000  0.25562000  0.78087000  1.0
  H  H53  1  0.75562000  0.02512000  0.03086000  1.0
  H  H54  1  0.52512000  0.74437000  0.28085000  1.0
  H  H55  1  0.24439000  0.97488000  0.53086000  1.0
  H  H56  1  0.97488000  0.24436000  0.96914000  1.0
  H  H57  1  0.74441000  0.52512000  0.21914000  1.0
  H  H58  1  0.02510000  0.75564000  0.46914000  1.0
  H  H59  1  0.25560000  0.47487000  0.71913000  1.0
  H  H60  1  0.27486000  0.96004000  0.88744000  1.0
  H  H61  1  0.46004000  0.22513000  0.13743000  1.0
  H  H62  1  0.72513000  0.03995000  0.38743000  1.0
  H  H63  1  0.53998000  0.77488000  0.63743000  1.0
  H  H64  1  0.77487000  0.53997000  0.86259000  1.0
  H  H65  1  0.03996000  0.72515000  0.11257000  1.0
  H  H66  1  0.22515000  0.46003000  0.36257000  1.0
  H  H67  1  0.96004000  0.27485000  0.61256000  1.0
  H  H68  1  0.37521000  0.08185000  0.79839000  1.0
  H  H69  1  0.58189000  0.12477000  0.04838000  1.0
  H  H70  1  0.62478000  0.91812000  0.29840000  1.0
  H  H71  1  0.41813000  0.87521000  0.54838000  1.0
  H  H72  1  0.87523000  0.41811000  0.95162000  1.0
  H  H73  1  0.91816000  0.62479000  0.20163000  1.0
  H  H74  1  0.12477000  0.58187000  0.45161000  1.0
  H  H75  1  0.08185000  0.37521000  0.70161000  1.0
  H  H76  1  0.50576000  0.02516000  0.75275000  1.0
  H  H77  1  0.52514000  0.99421000  0.00274000  1.0
  H  H78  1  0.49424000  0.97482000  0.25274000  1.0
  H  H79  1  0.47487000  0.00578000  0.50273000  1.0
  H  H80  1  0.00582000  0.47486000  0.99726000  1.0
  H  H81  1  0.97484000  0.49426000  0.24728000  1.0
  H  H82  1  0.99420000  0.52514000  0.49725000  1.0
  H  H83  1  0.02516000  0.50574000  0.74727000  1.0
  H  H84  1  0.60307000  0.90159000  0.72294000  1.0
  H  H85  1  0.40154000  0.89696000  0.97293000  1.0
  H  H86  1  0.39695000  0.09842000  0.22293000  1.0
  H  H87  1  0.59845000  0.10304000  0.47291000  1.0
  H  H88  1  0.10306000  0.59845000  0.02708000  1.0
  H  H89  1  0.09843000  0.39696000  0.27709000  1.0
  H  H90  1  0.89694000  0.40156000  0.52707000  1.0
  H  H91  1  0.90159000  0.60305000  0.77709000  1.0
  H  H92  1  0.56802000  0.74843000  0.75787000  1.0
  H  H93  1  0.24842000  0.93206000  0.00786000  1.0
  H  H94  1  0.43200000  0.25157000  0.25787000  1.0
  H  H95  1  0.75157000  0.06795000  0.50785000  1.0
  H  H96  1  0.06795000  0.75157000  0.99216000  1.0
  H  H97  1  0.25157000  0.43198000  0.24214000  1.0
  H  H98  1  0.93204000  0.24843000  0.49215000  1.0
  H  H99  1  0.74844000  0.56802000  0.74215000  1.0
  H  H100  1  0.43694000  0.72181000  0.82365000  1.0
  H  H101  1  0.22181000  0.06310000  0.07367000  1.0
  H  H102  1  0.56307000  0.27818000  0.32366000  1.0
  H  H103  1  0.77818000  0.93691000  0.57367000  1.0
  H  H104  1  0.93688000  0.77819000  0.92637000  1.0
  H  H105  1  0.27819000  0.56304000  0.17633000  1.0
  H  H106  1  0.06310000  0.22181000  0.42636000  1.0
  H  H107  1  0.72181000  0.43697000  0.67633000  1.0
  H  H108  1  0.34079000  0.84552000  0.85444000  1.0
  H  H109  1  0.34557000  0.15923000  0.10446000  1.0
  H  H110  1  0.65919000  0.15444000  0.35444000  1.0
  H  H111  1  0.65443000  0.84078000  0.60446000  1.0
  H  H112  1  0.84077000  0.65443000  0.89557000  1.0
  H  H113  1  0.15447000  0.65918000  0.14556000  1.0
  H  H114  1  0.15923000  0.34555000  0.39556000  1.0
  H  H115  1  0.84554000  0.34082000  0.64554000  1.0
  C  C116  1  0.01721000  0.19895000  0.80977000  1.0
  C  C117  1  0.69892000  0.48279000  0.05977000  1.0
  C  C118  1  0.98279000  0.80106000  0.30977000  1.0
  C  C119  1  0.30106000  0.51721000  0.55975000  1.0
  C  C120  1  0.51721000  0.30109000  0.94024000  1.0
  C  C121  1  0.80105000  0.98279000  0.19023000  1.0
  C  C122  1  0.48279000  0.69892000  0.44023000  1.0
  C  C123  1  0.19895000  0.01721000  0.69023000  1.0
  C  C124  1  0.92468000  0.19019000  0.78573000  1.0
  C  C125  1  0.69017000  0.57534000  0.03572000  1.0
  C  C126  1  0.07532000  0.80982000  0.28572000  1.0
  C  C127  1  0.30981000  0.42467000  0.53571000  1.0
  C  C128  1  0.42466000  0.30983000  0.96428000  1.0
  C  C129  1  0.80981000  0.07532000  0.21427000  1.0
  C  C130  1  0.57533000  0.69018000  0.46428000  1.0
  C  C131  1  0.19019000  0.92468000  0.71427000  1.0
  C  C132  1  0.90906000  0.15470000  0.72711000  1.0
  C  C133  1  0.65469000  0.59094000  0.97710000  1.0
  C  C134  1  0.09094000  0.84531000  0.22710000  1.0
  C  C135  1  0.34530000  0.40907000  0.47710000  1.0
  C  C136  1  0.40905000  0.34530000  0.02290000  1.0
  C  C137  1  0.84528000  0.09094000  0.27289000  1.0
  C  C138  1  0.59094000  0.65470000  0.52290000  1.0
  C  C139  1  0.15471000  0.90906000  0.77289000  1.0
  C  C140  1  0.82354000  0.15148000  0.70436000  1.0
  C  C141  1  0.65145000  0.67647000  0.95436000  1.0
  C  C142  1  0.17646000  0.84854000  0.20435000  1.0
  C  C143  1  0.34854000  0.32355000  0.45435000  1.0
  C  C144  1  0.32353000  0.34854000  0.04564000  1.0
  C  C145  1  0.84853000  0.17646000  0.29564000  1.0
  C  C146  1  0.67646000  0.65146000  0.54564000  1.0
  C  C147  1  0.15146000  0.82353000  0.79563000  1.0
  C  C148  1  0.75505000  0.18602000  0.74036000  1.0
  C  C149  1  0.68602000  0.74496000  0.99035000  1.0
  C  C150  1  0.24495000  0.81399000  0.24035000  1.0
  C  C151  1  0.31398000  0.25505000  0.49034000  1.0
  C  C152  1  0.25504000  0.31398000  0.00965000  1.0
  C  C153  1  0.81399000  0.24495000  0.25964000  1.0
  C  C154  1  0.74495000  0.68602000  0.50965000  1.0
  C  C155  1  0.18601000  0.75504000  0.75963000  1.0
  C  C156  1  0.85267000  0.22159000  0.81921000  1.0
  C  C157  1  0.72156000  0.64734000  0.06921000  1.0
  C  C158  1  0.14733000  0.77842000  0.31920000  1.0
  C  C159  1  0.27843000  0.35265000  0.56920000  1.0
  C  C160  1  0.35265000  0.27843000  0.93080000  1.0
  C  C161  1  0.77841000  0.14734000  0.18079000  1.0
  C  C162  1  0.64735000  0.72157000  0.43079000  1.0
  C  C163  1  0.22160000  0.85267000  0.68079000  1.0
  C  C164  1  0.66176000  0.18638000  0.72054000  1.0
  C  C165  1  0.68636000  0.83825000  0.97052000  1.0
  C  C166  1  0.33824000  0.81363000  0.22053000  1.0
  C  C167  1  0.31364000  0.16175000  0.47052000  1.0
  C  C168  1  0.16175000  0.31364000  0.02948000  1.0
  C  C169  1  0.81364000  0.33824000  0.27946000  1.0
  C  C170  1  0.83824000  0.68637000  0.52948000  1.0
  C  C171  1  0.18637000  0.66175000  0.77946000  1.0
  C  C172  1  0.63259000  0.14829000  0.66530000  1.0
  C  C173  1  0.64827000  0.86742000  0.91528000  1.0
  C  C174  1  0.36742000  0.85173000  0.16529000  1.0
  C  C175  1  0.35172000  0.13259000  0.41528000  1.0
  C  C176  1  0.13257000  0.35172000  0.08472000  1.0
  C  C177  1  0.85172000  0.36741000  0.33470000  1.0
  C  C178  1  0.86742000  0.64828000  0.58471000  1.0
  C  C179  1  0.14830000  0.63259000  0.83470000  1.0
  C  C180  1  0.54308000  0.14828000  0.65184000  1.0
  C  C181  1  0.64827000  0.95692000  0.90182000  1.0
  C  C182  1  0.45693000  0.85173000  0.15183000  1.0
  C  C183  1  0.35173000  0.04308000  0.40182000  1.0
  C  C184  1  0.04306000  0.35172000  0.09818000  1.0
  C  C185  1  0.85172000  0.45691000  0.34817000  1.0
  C  C186  1  0.95693000  0.64828000  0.59817000  1.0
  C  C187  1  0.14829000  0.54308000  0.84816000  1.0
  C  C188  1  0.48413000  0.18644000  0.69348000  1.0
  C  C189  1  0.68642000  0.01587000  0.94347000  1.0
  C  C190  1  0.51587000  0.81356000  0.19347000  1.0
  C  C191  1  0.31358000  0.98413000  0.44347000  1.0
  C  C192  1  0.98413000  0.31355000  0.05652000  1.0
  C  C193  1  0.81356000  0.51587000  0.30653000  1.0
  C  C194  1  0.01586000  0.68644000  0.55652000  1.0
  C  C195  1  0.18643000  0.48413000  0.80652000  1.0
  C  C196  1  0.51815000  0.22481000  0.74704000  1.0
  C  C197  1  0.72478000  0.98185000  0.99704000  1.0
  C  C198  1  0.48185000  0.77518000  0.24703000  1.0
  C  C199  1  0.27524000  0.01814000  0.49705000  1.0
  C  C200  1  0.01815000  0.27520000  0.00296000  1.0
  C  C201  1  0.77521000  0.48186000  0.25296000  1.0
  C  C202  1  0.98184000  0.72479000  0.50295000  1.0
  C  C203  1  0.22480000  0.51814000  0.75295000  1.0
  C  C204  1  0.38632000  0.18426000  0.68314000  1.0
  C  C205  1  0.68424000  0.11368000  0.93313000  1.0
  C  C206  1  0.61369000  0.81574000  0.18313000  1.0
  C  C207  1  0.31575000  0.88632000  0.43314000  1.0
  C  C208  1  0.88632000  0.31575000  0.06686000  1.0
  C  C209  1  0.81575000  0.61369000  0.31687000  1.0
  C  C210  1  0.11368000  0.68426000  0.56685000  1.0
  C  C211  1  0.18426000  0.38631000  0.81686000  1.0
  C  C212  1  0.23666000  0.09576000  0.87437000  1.0
  C  C213  1  0.59577000  0.26332000  0.12436000  1.0
  C  C214  1  0.76334000  0.90423000  0.37436000  1.0
  C  C215  1  0.40424000  0.73666000  0.62435000  1.0
  C  C216  1  0.73668000  0.40423000  0.87565000  1.0
  C  C217  1  0.90423000  0.76334000  0.12564000  1.0
  C  C218  1  0.26333000  0.59577000  0.37564000  1.0
  C  C219  1  0.09577000  0.23667000  0.62564000  1.0
  C  C220  1  0.29195000  0.01863000  0.86107000  1.0
  C  C221  1  0.51865000  0.20804000  0.11107000  1.0
  C  C222  1  0.70804000  0.98135000  0.36106000  1.0
  C  C223  1  0.48136000  0.79196000  0.61107000  1.0
  C  C224  1  0.79197000  0.48135000  0.88894000  1.0
  C  C225  1  0.98135000  0.70805000  0.13894000  1.0
  C  C226  1  0.20806000  0.51865000  0.38893000  1.0
  C  C227  1  0.01865000  0.29196000  0.63893000  1.0
  C  C228  1  0.36054000  0.01969000  0.82165000  1.0
  C  C229  1  0.51973000  0.13944000  0.07166000  1.0
  C  C230  1  0.63945000  0.98028000  0.32165000  1.0
  C  C231  1  0.48028000  0.86056000  0.57166000  1.0
  C  C232  1  0.86058000  0.48027000  0.92834000  1.0
  C  C233  1  0.98029000  0.63947000  0.17835000  1.0
  C  C234  1  0.13945000  0.51972000  0.42833000  1.0
  C  C235  1  0.01970000  0.36054000  0.67835000  1.0
  C  C236  1  0.41697000  0.94503000  0.80655000  1.0
  C  C237  1  0.44505000  0.08304000  0.05656000  1.0
  C  C238  1  0.58302000  0.05495000  0.30655000  1.0
  C  C239  1  0.55496000  0.91697000  0.55656000  1.0
  C  C240  1  0.91697000  0.55495000  0.94345000  1.0
  C  C241  1  0.05496000  0.58303000  0.19345000  1.0
  C  C242  1  0.08304000  0.44505000  0.44344000  1.0
  C  C243  1  0.94503000  0.41697000  0.69345000  1.0
  C  C244  1  0.49145000  0.95876000  0.76905000  1.0
  C  C245  1  0.45877000  0.00856000  0.01906000  1.0
  C  C246  1  0.50854000  0.04122000  0.26905000  1.0
  C  C247  1  0.54125000  0.99144000  0.51906000  1.0
  C  C248  1  0.99146000  0.54125000  0.98094000  1.0
  C  C249  1  0.04124000  0.50856000  0.23097000  1.0
  C  C250  1  0.00856000  0.45876000  0.48093000  1.0
  C  C251  1  0.95876000  0.49145000  0.73097000  1.0
  C  C252  1  0.54622000  0.88906000  0.75241000  1.0
  C  C253  1  0.38906000  0.95380000  0.00242000  1.0
  C  C254  1  0.45378000  0.11094000  0.25241000  1.0
  C  C255  1  0.61094000  0.04623000  0.50242000  1.0
  C  C256  1  0.04623000  0.61094000  0.99758000  1.0
  C  C257  1  0.11095000  0.45378000  0.24761000  1.0
  C  C258  1  0.95378000  0.38907000  0.49758000  1.0
  C  C259  1  0.88906000  0.54623000  0.74761000  1.0
  C  C260  1  0.52722000  0.80373000  0.77238000  1.0
  C  C261  1  0.30374000  0.97280000  0.02239000  1.0
  C  C262  1  0.47278000  0.19626000  0.27238000  1.0
  C  C263  1  0.69625000  0.02721000  0.52238000  1.0
  C  C264  1  0.02721000  0.69626000  0.97762000  1.0
  C  C265  1  0.19628000  0.47278000  0.22763000  1.0
  C  C266  1  0.97279000  0.30375000  0.47762000  1.0
  C  C267  1  0.80373000  0.52723000  0.72762000  1.0
  C  C268  1  0.45327000  0.78873000  0.80947000  1.0
  C  C269  1  0.28872000  0.04676000  0.05946000  1.0
  C  C270  1  0.54674000  0.21126000  0.30947000  1.0
  C  C271  1  0.71127000  0.95323000  0.55945000  1.0
  C  C272  1  0.95322000  0.71127000  0.94056000  1.0
  C  C273  1  0.21127000  0.54673000  0.19054000  1.0
  C  C274  1  0.04677000  0.28873000  0.44055000  1.0
  C  C275  1  0.78873000  0.45329000  0.69053000  1.0
  C  C276  1  0.39916000  0.85845000  0.82656000  1.0
  C  C277  1  0.35845000  0.10087000  0.07656000  1.0
  C  C278  1  0.60084000  0.14154000  0.32656000  1.0
  C  C279  1  0.64156000  0.89911000  0.57655000  1.0
  C  C280  1  0.89911000  0.64156000  0.92347000  1.0
  C  C281  1  0.14155000  0.60083000  0.17344000  1.0
  C  C282  1  0.10088000  0.35844000  0.42346000  1.0
  C  C283  1  0.85845000  0.39917000  0.67343000  1.0
  N  N284  1  0.77082000  0.22058000  0.79660000  1.0
  N  N285  1  0.72055000  0.72918000  0.04659000  1.0
  N  N286  1  0.22918000  0.77943000  0.29659000  1.0
  N  N287  1  0.27945000  0.27082000  0.54658000  1.0
  N  N288  1  0.27081000  0.27944000  0.95342000  1.0
  N  N289  1  0.77943000  0.22918000  0.20341000  1.0
  N  N290  1  0.72918000  0.72055000  0.45341000  1.0
  N  N291  1  0.22058000  0.77082000  0.70339000  1.0
  N  N292  1  0.60412000  0.22449000  0.75998000  1.0
  N  N293  1  0.72445000  0.89587000  0.00998000  1.0
  N  N294  1  0.39588000  0.77551000  0.25996000  1.0
  N  N295  1  0.27557000  0.10412000  0.50999000  1.0
  N  N296  1  0.10412000  0.27554000  0.99002000  1.0
  N  N297  1  0.77552000  0.39588000  0.24001000  1.0
  N  N298  1  0.89587000  0.72446000  0.49002000  1.0
  N  N299  1  0.22448000  0.60411000  0.74002000  1.0
  O  O300  1  0.07563000  0.19811000  0.76836000  1.0
  O  O301  1  0.69812000  0.42437000  0.01836000  1.0
  O  O302  1  0.92437000  0.80191000  0.26836000  1.0
  O  O303  1  0.30185000  0.57563000  0.51835000  1.0
  O  O304  1  0.57563000  0.30188000  0.98165000  1.0
  O  O305  1  0.80185000  0.92437000  0.23164000  1.0
  O  O306  1  0.42435000  0.69809000  0.48164000  1.0
  O  O307  1  0.19813000  0.07563000  0.73163000  1.0
  O  O308  1  0.02783000  0.20748000  0.86777000  1.0
  O  O309  1  0.70743000  0.47218000  0.11777000  1.0
  O  O310  1  0.97218000  0.79252000  0.36777000  1.0
  O  O311  1  0.29256000  0.52782000  0.61776000  1.0
  O  O312  1  0.52783000  0.29258000  0.88224000  1.0
  O  O313  1  0.79253000  0.97218000  0.13223000  1.0
  O  O314  1  0.47218000  0.70745000  0.38224000  1.0
  O  O315  1  0.20749000  0.02783000  0.63223000  1.0
  O  O316  1  0.36079000  0.14851000  0.63328000  1.0
  O  O317  1  0.64848000  0.13921000  0.88327000  1.0
  O  O318  1  0.63922000  0.85150000  0.13327000  1.0
  O  O319  1  0.35148000  0.86079000  0.38327000  1.0
  O  O320  1  0.86077000  0.35151000  0.11672000  1.0
  O  O321  1  0.85149000  0.63923000  0.36673000  1.0
  O  O322  1  0.13922000  0.64849000  0.61671000  1.0
  O  O323  1  0.14852000  0.36078000  0.86673000  1.0
  O  O324  1  0.33973000  0.21740000  0.72571000  1.0
  O  O325  1  0.71741000  0.16025000  0.97569000  1.0
  O  O326  1  0.66026000  0.78258000  0.22570000  1.0
  O  O327  1  0.28259000  0.83974000  0.47569000  1.0
  O  O328  1  0.83975000  0.28257000  0.02431000  1.0
  O  O329  1  0.78261000  0.66026000  0.27430000  1.0
  O  O330  1  0.16025000  0.71744000  0.52431000  1.0
  O  O331  1  0.21741000  0.33973000  0.77430000  1.0
  O  O332  1  0.24483000  0.16805000  0.84272000  1.0
  O  O333  1  0.66806000  0.25514000  0.09271000  1.0
  O  O334  1  0.75517000  0.83194000  0.34271000  1.0
  O  O335  1  0.33196000  0.74484000  0.59270000  1.0
  O  O336  1  0.74486000  0.33194000  0.90730000  1.0
  O  O337  1  0.83194000  0.75515000  0.15729000  1.0
  O  O338  1  0.25512000  0.66806000  0.40728000  1.0
  O  O339  1  0.16806000  0.24483000  0.65729000  1.0
  O  O340  1  0.18257000  0.09225000  0.91893000  1.0
  O  O341  1  0.59228000  0.31743000  0.16891000  1.0
  O  O342  1  0.81743000  0.90774000  0.41892000  1.0
  O  O343  1  0.40774000  0.68256000  0.66890000  1.0
  O  O344  1  0.68256000  0.40774000  0.83110000  1.0
  O  O345  1  0.90774000  0.81744000  0.08109000  1.0
  O  O346  1  0.31744000  0.59226000  0.33109000  1.0
  O  O347  1  0.09227000  0.18258000  0.58108000  1.0
