# generated using pymatgen
data_Ag2P2H10C12O5
_symmetry_space_group_name_H-M   'P 1'
_cell_length_a   5.86450000
_cell_length_b   8.05696000
_cell_length_c   14.71570000
_cell_angle_alpha   103.01010000
_cell_angle_beta   89.75610000
_cell_angle_gamma   89.80090000
_symmetry_Int_Tables_number   1
_chemical_formula_structural   Ag2P2H10C12O5
_chemical_formula_sum   'Ag4 P4 H20 C24 O10'
_cell_volume   677.45576720
_cell_formula_units_Z   2
loop_
 _symmetry_equiv_pos_site_id
 _symmetry_equiv_pos_as_xyz
  1  'x, y, z'
loop_
 _atom_site_type_symbol
 _atom_site_label
 _atom_site_symmetry_multiplicity
 _atom_site_fract_x
 _atom_site_fract_y
 _atom_site_fract_z
 _atom_site_occupancy
  Ag  Ag0  1  0.59309000  0.71452000  0.97413000  1.0
  Ag  Ag1  1  0.40692000  0.28548000  0.02587000  1.0
  Ag  Ag2  1  0.85024000  0.17451000  0.09019000  1.0
  Ag  Ag3  1  0.14978000  0.82548000  0.90980000  1.0
  P  P4  1  0.37782000  0.04843000  0.17097000  1.0
  P  P5  1  0.62218000  0.95157000  0.82903000  1.0
  P  P6  1  0.14676000  0.70530000  0.10508000  1.0
  P  P7  1  0.85324000  0.29471000  0.89492000  1.0
  H  H8  1  0.16921000  0.24058000  0.34240000  1.0
  H  H9  1  0.83078000  0.75942000  0.65759000  1.0
  H  H10  1  0.29696000  0.30180000  0.50832000  1.0
  H  H11  1  0.70302000  0.69821000  0.49168000  1.0
  H  H12  1  0.66615000  0.18675000  0.54876000  1.0
  H  H13  1  0.33383000  0.81326000  0.45124000  1.0
  H  H14  1  0.91206000  0.01296000  0.42404000  1.0
  H  H15  1  0.08794000  0.98705000  0.57596000  1.0
  H  H16  1  0.78381000  0.95062000  0.25906000  1.0
  H  H17  1  0.21620000  0.04939000  0.74095000  1.0
  H  H18  1  0.70725000  0.53613000  0.11349000  1.0
  H  H19  1  0.29275000  0.46386000  0.88651000  1.0
  H  H20  1  0.52864000  0.40995000  0.23492000  1.0
  H  H21  1  0.47136000  0.59004000  0.76508000  1.0
  H  H22  1  0.73113000  0.41851000  0.38450000  1.0
  H  H23  1  0.26888000  0.58149000  0.61550000  1.0
  H  H24  1  0.10798000  0.56410000  0.41341000  1.0
  H  H25  1  0.89204000  0.43589000  0.58659000  1.0
  H  H26  1  0.28643000  0.69000000  0.29119000  1.0
  H  H27  1  0.71358000  0.30999000  0.70881000  1.0
  C  C28  1  0.46772000  0.09118000  0.29083000  1.0
  C  C29  1  0.53228000  0.90881000  0.70917000  1.0
  C  C30  1  0.33103000  0.19051000  0.36101000  1.0
  C  C31  1  0.66896000  0.80950000  0.63898000  1.0
  C  C32  1  0.40368000  0.22595000  0.45350000  1.0
  C  C33  1  0.59631000  0.77405000  0.54650000  1.0
  C  C34  1  0.61258000  0.16221000  0.47619000  1.0
  C  C35  1  0.38741000  0.83780000  0.52381000  1.0
  C  C36  1  0.74920000  0.06313000  0.40647000  1.0
  C  C37  1  0.25079000  0.93688000  0.59353000  1.0
  C  C38  1  0.67741000  0.02714000  0.31383000  1.0
  C  C39  1  0.32258000  0.97287000  0.68617000  1.0
  C  C40  1  0.01133000  0.61626000  0.19315000  1.0
  C  C41  1  0.98867000  0.38374000  0.80685000  1.0
  C  C42  1  0.79881000  0.53661000  0.17761000  1.0
  C  C43  1  0.20118000  0.46338000  0.82239000  1.0
  C  C44  1  0.69767000  0.46654000  0.24674000  1.0
  C  C45  1  0.30233000  0.53345000  0.75326000  1.0
  C  C46  1  0.80958000  0.47483000  0.33127000  1.0
  C  C47  1  0.19043000  0.52516000  0.66873000  1.0
  C  C48  1  0.02086000  0.55591000  0.34721000  1.0
  C  C49  1  0.97915000  0.44408000  0.65279000  1.0
  C  C50  1  0.12173000  0.62655000  0.27868000  1.0
  C  C51  1  0.87827000  0.37345000  0.72132000  1.0
  O  O52  1  0.58266000  0.98619000  0.10878000  1.0
  O  O53  1  0.41734000  0.01380000  0.89122000  1.0
  O  O54  1  0.24231000  0.19840000  0.15150000  1.0
  O  O55  1  0.75770000  0.80160000  0.84849000  1.0
  O  O56  1  0.19527000  0.89711000  0.16710000  1.0
  O  O57  1  0.80472000  0.10290000  0.83290000  1.0
  O  O58  1  0.98524000  0.72078000  0.02733000  1.0
  O  O59  1  0.01477000  0.27922000  0.97266000  1.0
  O  O60  1  0.37178000  0.61519000  0.07741000  1.0
  O  O61  1  0.62823000  0.38482000  0.92260000  1.0
