# generated using pymatgen
data_AgSb2H18C24S6NO3
_symmetry_space_group_name_H-M   'P 1'
_cell_length_a   8.65147000
_cell_length_b   13.32380000
_cell_length_c   14.63207698
_cell_angle_alpha   62.92832020
_cell_angle_beta   86.31469511
_cell_angle_gamma   89.99280000
_symmetry_Int_Tables_number   1
_chemical_formula_structural   AgSb2H18C24S6NO3
_chemical_formula_sum   'Ag2 Sb4 H36 C48 S12 N2 O6'
_cell_volume   1497.94263264
_cell_formula_units_Z   2
loop_
 _symmetry_equiv_pos_site_id
 _symmetry_equiv_pos_as_xyz
  1  'x, y, z'
loop_
 _atom_site_type_symbol
 _atom_site_label
 _atom_site_symmetry_multiplicity
 _atom_site_fract_x
 _atom_site_fract_y
 _atom_site_fract_z
 _atom_site_occupancy
  Ag  Ag0  1  0.14481000  0.14369000  0.90424000  1.0
  Ag  Ag1  1  0.64472000  0.95210000  0.90422000  1.0
  Sb  Sb2  1  0.17317000  0.33475000  0.72738000  1.0
  Sb  Sb3  1  0.67334000  0.93784000  0.72741000  1.0
  Sb  Sb4  1  0.21903000  0.14050000  0.07884000  1.0
  Sb  Sb5  1  0.71874000  0.78069000  0.07885000  1.0
  H  H6  1  0.97851000  0.15619000  0.67815000  1.0
  H  H7  1  0.47863000  0.16544000  0.67850000  1.0
  H  H8  1  0.84781000  0.19353000  0.50886000  1.0
  H  H9  1  0.34827000  0.29777000  0.50916000  1.0
  H  H10  1  0.89658000  0.40650000  0.36504000  1.0
  H  H11  1  0.39672000  0.22860000  0.36530000  1.0
  H  H12  1  0.53848000  0.30667000  0.77887000  1.0
  H  H13  1  0.03874000  0.91466000  0.77853000  1.0
  H  H14  1  0.78135000  0.42344000  0.66099000  1.0
  H  H15  1  0.28143000  0.91574000  0.66053000  1.0
  H  H16  1  0.70260000  0.56918000  0.47512000  1.0
  H  H17  1  0.20250000  0.95580000  0.47468000  1.0
  H  H18  1  0.99140000  0.40578000  0.89321000  1.0
  H  H19  1  0.49232000  0.70059000  0.89366000  1.0
  H  H20  1  0.87340000  0.60341000  0.85492000  1.0
  H  H21  1  0.37398000  0.54143000  0.85534000  1.0
  H  H22  1  0.92731000  0.75042000  0.65946000  1.0
  H  H23  1  0.42684000  0.59017000  0.65969000  1.0
  H  H24  1  0.54509000  0.26626000  0.94477000  1.0
  H  H25  1  0.04466000  0.78861000  0.94435000  1.0
  H  H26  1  0.69255000  0.43993000  0.94219000  1.0
  H  H27  1  0.19147000  0.61708000  0.94208000  1.0
  H  H28  1  0.55770000  0.49976000  0.07834000  1.0
  H  H29  1  0.05653000  0.42151000  0.07872000  1.0
  H  H30  1  0.85301000  0.21074000  0.05595000  1.0
  H  H31  1  0.35271000  0.73346000  0.05597000  1.0
  H  H32  1  0.66382000  0.24021000  0.19007000  1.0
  H  H33  1  0.16344000  0.56997000  0.18999000  1.0
  H  H34  1  0.80691000  0.21393000  0.35336000  1.0
  H  H35  1  0.30651000  0.43285000  0.35330000  1.0
  H  H36  1  0.22291000  0.86324000  0.16391000  1.0
  H  H37  1  0.72299000  0.97305000  0.16387000  1.0
  H  H38  1  0.35373000  0.71456000  0.32700000  1.0
  H  H39  1  0.85417000  0.95868000  0.32683000  1.0
  H  H40  1  0.49653000  0.81420000  0.42108000  1.0
  H  H41  1  0.99667000  0.76491000  0.42086000  1.0
  C  C42  1  0.05712000  0.33269000  0.60377000  1.0
  C  C43  1  0.55693000  0.06335000  0.60398000  1.0
  C  C44  1  0.98250000  0.23772000  0.60990000  1.0
  C  C45  1  0.48254000  0.15225000  0.61019000  1.0
  C  C46  1  0.91322000  0.25785000  0.51780000  1.0
  C  C47  1  0.41351000  0.22442000  0.51808000  1.0
  C  C48  1  0.93630000  0.36742000  0.44235000  1.0
  C  C49  1  0.43654000  0.19035000  0.44257000  1.0
  C  C50  1  0.39494000  0.40328000  0.65212000  1.0
  C  C51  1  0.89502000  0.94479000  0.65186000  1.0
  C  C52  1  0.53189000  0.37279000  0.70045000  1.0
  C  C53  1  0.03205000  0.92699000  0.70009000  1.0
  C  C54  1  0.66371000  0.43502000  0.63648000  1.0
  C  C55  1  0.16378000  0.92874000  0.63603000  1.0
  C  C56  1  0.62607000  0.51167000  0.53984000  1.0
  C  C57  1  0.12600000  0.94862000  0.53943000  1.0
  C  C58  1  0.07580000  0.47906000  0.73190000  1.0
  C  C59  1  0.57607000  0.78885000  0.73220000  1.0
  C  C60  1  0.00147000  0.47967000  0.81831000  1.0
  C  C61  1  0.50199000  0.70175000  0.81867000  1.0
  C  C62  1  0.93660000  0.58523000  0.79771000  1.0
  C  C63  1  0.43686000  0.61689000  0.79806000  1.0
  C  C64  1  0.96307000  0.66370000  0.69635000  1.0
  C  C65  1  0.46281000  0.63991000  0.69662000  1.0
  C  C66  1  0.38316000  0.26691000  0.06500000  1.0
  C  C67  1  0.88294000  0.66817000  0.06504000  1.0
  C  C68  1  0.51011000  0.30485000  0.99404000  1.0
  C  C69  1  0.00964000  0.70085000  0.99391000  1.0
  C  C70  1  0.59024000  0.39848000  0.99308000  1.0
  C  C71  1  0.08936000  0.60801000  0.99305000  1.0
  C  C72  1  0.52238000  0.43147000  0.06240000  1.0
  C  C73  1  0.02145000  0.50584000  0.06263000  1.0
  C  C74  1  0.03529000  0.17790000  0.16151000  1.0
  C  C75  1  0.53497000  0.66065000  0.16151000  1.0
  C  C76  1  0.88697000  0.20347000  0.12911000  1.0
  C  C77  1  0.38664000  0.66755000  0.12912000  1.0
  C  C78  1  0.78513000  0.21982000  0.20108000  1.0
  C  C79  1  0.28476000  0.57930000  0.20106000  1.0
  C  C80  1  0.85736000  0.20729000  0.28660000  1.0
  C  C81  1  0.35696000  0.50625000  0.28656000  1.0
  C  C82  1  0.31042000  0.99496000  0.19836000  1.0
  C  C83  1  0.81002000  0.80671000  0.19838000  1.0
  C  C84  1  0.28830000  0.88545000  0.21369000  1.0
  C  C85  1  0.78828000  0.90100000  0.21362000  1.0
  C  C86  1  0.35763000  0.80498000  0.30228000  1.0
  C  C87  1  0.85777000  0.89290000  0.30216000  1.0
  C  C88  1  0.43159000  0.85425000  0.35300000  1.0
  C  C89  1  0.93155000  0.79286000  0.35288000  1.0
  S  S90  1  0.04135000  0.44556000  0.48453000  1.0
  S  S91  1  0.54123000  0.06987000  0.48469000  1.0
  S  S92  1  0.43022000  0.50779000  0.52758000  1.0
  S  S93  1  0.93010000  0.96477000  0.52732000  1.0
  S  S94  1  0.06701000  0.60924000  0.62677000  1.0
  S  S95  1  0.56661000  0.76395000  0.62701000  1.0
  S  S96  1  0.36288000  0.34796000  0.12923000  1.0
  S  S97  1  0.86238000  0.52294000  0.12955000  1.0
  S  S98  1  0.04797000  0.17418000  0.28002000  1.0
  S  S99  1  0.54756000  0.54586000  0.28001000  1.0
  S  S100  1  0.41738000  0.99823000  0.29233000  1.0
  S  S101  1  0.91701000  0.70947000  0.29229000  1.0
  N  N102  1  0.78178000  0.16336000  0.89114000  1.0
  N  N103  1  0.28160000  0.94538000  0.89115000  1.0
  O  O104  1  0.87822000  0.08648000  0.90109000  1.0
  O  O105  1  0.37800000  0.01228000  0.90117000  1.0
  O  O106  1  0.63838000  0.14094000  0.89184000  1.0
  O  O107  1  0.13817000  0.96697000  0.89206000  1.0
  O  O108  1  0.82707000  0.25740000  0.88112000  1.0
  O  O109  1  0.32699000  0.86153000  0.88084000  1.0
