# generated using pymatgen
data_Zn2H8C12N3O10
_symmetry_space_group_name_H-M   'P 1'
_cell_length_a   7.03597000
_cell_length_b   7.03778000
_cell_length_c   16.28940000
_cell_angle_alpha   97.40800000
_cell_angle_beta   97.25180000
_cell_angle_gamma   105.56400000
_symmetry_Int_Tables_number   1
_chemical_formula_structural   Zn2H8C12N3O10
_chemical_formula_sum   'Zn4 H16 C24 N6 O20'
_cell_volume   759.55089611
_cell_formula_units_Z   2
loop_
 _symmetry_equiv_pos_site_id
 _symmetry_equiv_pos_as_xyz
  1  'x, y, z'
loop_
 _atom_site_type_symbol
 _atom_site_label
 _atom_site_symmetry_multiplicity
 _atom_site_fract_x
 _atom_site_fract_y
 _atom_site_fract_z
 _atom_site_occupancy
  Zn  Zn0  1  0.14794000  0.90653000  0.05762000  1.0
  Zn  Zn1  1  0.09383000  0.85233000  0.44179000  1.0
  Zn  Zn2  1  0.85205000  0.09347000  0.94240000  1.0
  Zn  Zn3  1  0.90619000  0.14771000  0.55818000  1.0
  H  H4  1  0.49028000  0.84718000  0.16631000  1.0
  H  H5  1  0.15375000  0.51127000  0.33285000  1.0
  H  H6  1  0.50970000  0.15282000  0.83368000  1.0
  H  H7  1  0.84622000  0.48872000  0.66716000  1.0
  H  H8  1  0.69491000  0.60696000  0.16442000  1.0
  H  H9  1  0.39445000  0.30747000  0.33486000  1.0
  H  H10  1  0.30509000  0.39305000  0.83560000  1.0
  H  H11  1  0.60557000  0.69258000  0.66514000  1.0
  H  H12  1  0.53324000  0.16168000  0.08577000  1.0
  H  H13  1  0.83764000  0.46723000  0.41431000  1.0
  H  H14  1  0.46673000  0.83831000  0.91422000  1.0
  H  H15  1  0.16238000  0.53281000  0.58570000  1.0
  H  H16  1  0.37835000  0.24445000  0.02630000  1.0
  H  H17  1  0.75474000  0.62513000  0.47263000  1.0
  H  H18  1  0.62164000  0.75556000  0.97369000  1.0
  H  H19  1  0.24524000  0.37495000  0.52735000  1.0
  C  C20  1  0.88616000  0.09600000  0.14090000  1.0
  C  C21  1  0.90228000  0.11283000  0.35882000  1.0
  C  C22  1  0.11380000  0.90397000  0.85909000  1.0
  C  C23  1  0.09776000  0.88722000  0.64118000  1.0
  C  C24  1  0.99520000  0.01923000  0.20728000  1.0
  C  C25  1  0.97971000  0.00401000  0.29230000  1.0
  C  C26  1  0.00479000  0.98074000  0.79270000  1.0
  C  C27  1  0.02029000  0.99599000  0.70770000  1.0
  C  C28  1  0.17288000  0.82783000  0.24976000  1.0
  C  C29  1  0.82713000  0.17215000  0.75024000  1.0
  C  C30  1  0.30303000  0.69853000  0.24964000  1.0
  C  C31  1  0.69694000  0.30146000  0.75035000  1.0
  C  C32  1  0.45763000  0.72431000  0.20148000  1.0
  C  C33  1  0.27643000  0.54370000  0.29752000  1.0
  C  C34  1  0.54236000  0.27567000  0.79851000  1.0
  C  C35  1  0.72355000  0.45630000  0.70248000  1.0
  C  C36  1  0.57643000  0.59447000  0.20262000  1.0
  C  C37  1  0.40711000  0.42573000  0.29659000  1.0
  C  C38  1  0.42358000  0.40554000  0.79738000  1.0
  C  C39  1  0.59287000  0.57428000  0.70340000  1.0
  C  C40  1  0.11199000  0.50285000  0.99783000  1.0
  C  C41  1  0.49705000  0.88805000  0.50162000  1.0
  C  C42  1  0.88802000  0.49716000  0.00217000  1.0
  C  C43  1  0.50294000  0.11191000  0.49836000  1.0
  N  N44  1  0.12099000  0.91341000  0.18350000  1.0
  N  N45  1  0.08623000  0.87891000  0.31599000  1.0
  N  N46  1  0.87899000  0.08657000  0.81649000  1.0
  N  N47  1  0.91372000  0.12108000  0.68401000  1.0
  N  N48  1  0.55255000  0.45220000  0.25036000  1.0
  N  N49  1  0.44750000  0.54780000  0.74966000  1.0
  O  O50  1  0.96009000  0.09277000  0.07158000  1.0
  O  O51  1  0.90814000  0.04022000  0.42836000  1.0
  O  O52  1  0.03989000  0.90724000  0.92843000  1.0
  O  O53  1  0.09186000  0.95980000  0.57162000  1.0
  O  O54  1  0.73410000  0.14769000  0.15186000  1.0
  O  O55  1  0.84724000  0.26307000  0.34793000  1.0
  O  O56  1  0.26585000  0.85225000  0.84814000  1.0
  O  O57  1  0.15280000  0.73697000  0.65206000  1.0
  O  O58  1  0.24612000  0.66805000  0.02597000  1.0
  O  O59  1  0.33180000  0.75421000  0.47325000  1.0
  O  O60  1  0.75387000  0.33196000  0.97403000  1.0
  O  O61  1  0.66818000  0.24575000  0.52674000  1.0
  O  O62  1  0.14611000  0.34449000  0.96705000  1.0
  O  O63  1  0.65531000  0.85317000  0.53186000  1.0
  O  O64  1  0.85388000  0.65551000  0.03294000  1.0
  O  O65  1  0.34470000  0.14680000  0.46811000  1.0
  O  O66  1  0.39145000  0.14287000  0.06044000  1.0
  O  O67  1  0.86036000  0.60864000  0.44122000  1.0
  O  O68  1  0.60852000  0.85715000  0.93956000  1.0
  O  O69  1  0.13986000  0.39133000  0.55893000  1.0
