# generated using pymatgen
data_ZnH14C22SNO6
_symmetry_space_group_name_H-M   'P 1'
_cell_length_a   8.17592000
_cell_length_b   12.54630000
_cell_length_c   12.99501890
_cell_angle_alpha   87.46258286
_cell_angle_beta   72.69907044
_cell_angle_gamma   77.01610000
_symmetry_Int_Tables_number   1
_chemical_formula_structural   ZnH14C22SNO6
_chemical_formula_sum   'Zn2 H28 C44 S2 N2 O12'
_cell_volume   1239.78431087
_cell_formula_units_Z   2
loop_
 _symmetry_equiv_pos_site_id
 _symmetry_equiv_pos_as_xyz
  1  'x, y, z'
loop_
 _atom_site_type_symbol
 _atom_site_label
 _atom_site_symmetry_multiplicity
 _atom_site_fract_x
 _atom_site_fract_y
 _atom_site_fract_z
 _atom_site_occupancy
  Zn  Zn0  1  0.14635000  0.42567000  0.52551000  1.0
  Zn  Zn1  1  0.85365000  0.57432000  0.47448000  1.0
  H  H2  1  0.50103000  0.06628000  0.62157000  1.0
  H  H3  1  0.49898000  0.93372000  0.37843000  1.0
  H  H4  1  0.23310000  0.20928000  0.62717000  1.0
  H  H5  1  0.76690000  0.79071000  0.37283000  1.0
  H  H6  1  0.79951000  0.26239000  0.39059000  1.0
  H  H7  1  0.20050000  0.73763000  0.60942000  1.0
  H  H8  1  0.22435000  0.34808000  0.79656000  1.0
  H  H9  1  0.77565000  0.65191000  0.20343000  1.0
  H  H10  1  0.97127000  0.32065000  0.98815000  1.0
  H  H11  1  0.02870000  0.67933000  0.01186000  1.0
  H  H12  1  0.38107000  0.10489000  0.09212000  1.0
  H  H13  1  0.61896000  0.89512000  0.90787000  1.0
  H  H14  1  0.87161000  0.42590000  0.16463000  1.0
  H  H15  1  0.12838000  0.57409000  0.83538000  1.0
  H  H16  1  0.64584000  0.10312000  0.85959000  1.0
  H  H17  1  0.35416000  0.89687000  0.14040000  1.0
  H  H18  1  0.99908000  0.19725000  0.47128000  1.0
  H  H19  1  0.00092000  0.80275000  0.52872000  1.0
  H  H20  1  0.27434000  0.06725000  0.46424000  1.0
  H  H21  1  0.72566000  0.93275000  0.53577000  1.0
  H  H22  1  0.51906000  0.39891000  0.40847000  1.0
  H  H23  1  0.48093000  0.60110000  0.59155000  1.0
  H  H24  1  0.44149000  0.44936000  0.68666000  1.0
  H  H25  1  0.55850000  0.55065000  0.31334000  1.0
  H  H26  1  0.86375000  0.20701000  0.74914000  1.0
  H  H27  1  0.13625000  0.79299000  0.25086000  1.0
  H  H28  1  0.27760000  0.20997000  0.26794000  1.0
  H  H29  1  0.72243000  0.79004000  0.73204000  1.0
  C  C30  1  0.79603000  0.39004000  0.63444000  1.0
  C  C31  1  0.20397000  0.60995000  0.36556000  1.0
  C  C32  1  0.84123000  0.07447000  0.50320000  1.0
  C  C33  1  0.15877000  0.92553000  0.49680000  1.0
  C  C34  1  0.51207000  0.13734000  0.57083000  1.0
  C  C35  1  0.48793000  0.86266000  0.42917000  1.0
  C  C36  1  0.36170000  0.21697000  0.57509000  1.0
  C  C37  1  0.63831000  0.78303000  0.42490000  1.0
  C  C38  1  0.67761000  0.24750000  0.44493000  1.0
  C  C39  1  0.32240000  0.75250000  0.55507000  1.0
  C  C40  1  0.36389000  0.31827000  0.78780000  1.0
  C  C41  1  0.63611000  0.68172000  0.21220000  1.0
  C  C42  1  0.01648000  0.38919000  0.32934000  1.0
  C  C43  1  0.98352000  0.61082000  0.67065000  1.0
  C  C44  1  0.03729000  0.29724000  0.04995000  1.0
  C  C45  1  0.96271000  0.70275000  0.95005000  1.0
  C  C46  1  0.42411000  0.21960000  0.83314000  1.0
  C  C47  1  0.57588000  0.78039000  0.16686000  1.0
  C  C48  1  0.26874000  0.17444000  0.10876000  1.0
  C  C49  1  0.73128000  0.82557000  0.89124000  1.0
  C  C50  1  0.98171000  0.35509000  0.14784000  1.0
  C  C51  1  0.01829000  0.64490000  0.85216000  1.0
  C  C52  1  0.18118000  0.20802000  0.03139000  1.0
  C  C53  1  0.81883000  0.79198000  0.96861000  1.0
  C  C54  1  0.60258000  0.17927000  0.82189000  1.0
  C  C55  1  0.39742000  0.82073000  0.17811000  1.0
  C  C56  1  0.99851000  0.11072000  0.48210000  1.0
  C  C57  1  0.00150000  0.88928000  0.51790000  1.0
  C  C58  1  0.06938000  0.32388000  0.22585000  1.0
  C  C59  1  0.93063000  0.67612000  0.77414000  1.0
  C  C60  1  0.15468000  0.03707000  0.47854000  1.0
  C  C61  1  0.84532000  0.96294000  0.52146000  1.0
  C  C62  1  0.67624000  0.15250000  0.50616000  1.0
  C  C63  1  0.32377000  0.84751000  0.49384000  1.0
  C  C64  1  0.52244000  0.32345000  0.45330000  1.0
  C  C65  1  0.47755000  0.67656000  0.54671000  1.0
  C  C66  1  0.48574000  0.37472000  0.72600000  1.0
  C  C67  1  0.51424000  0.62529000  0.27401000  1.0
  C  C68  1  0.72370000  0.23692000  0.76004000  1.0
  C  C69  1  0.27629000  0.76308000  0.23996000  1.0
  C  C70  1  0.21125000  0.23287000  0.20631000  1.0
  C  C71  1  0.78876000  0.76714000  0.79369000  1.0
  C  C72  1  0.66598000  0.33325000  0.70973000  1.0
  C  C73  1  0.33402000  0.66676000  0.29027000  1.0
  S  S74  1  0.26750000  0.14214000  0.90171000  1.0
  S  S75  1  0.73250000  0.85786000  0.09828000  1.0
  N  N76  1  0.36658000  0.30922000  0.51814000  1.0
  N  N77  1  0.63342000  0.69078000  0.48186000  1.0
  O  O78  1  0.88888000  0.47255000  0.34425000  1.0
  O  O79  1  0.11112000  0.52745000  0.65574000  1.0
  O  O80  1  0.73388000  0.46939000  0.58243000  1.0
  O  O81  1  0.26612000  0.53060000  0.41756000  1.0
  O  O82  1  0.95763000  0.35371000  0.62678000  1.0
  O  O83  1  0.04235000  0.64630000  0.37322000  1.0
  O  O84  1  0.10487000  0.35565000  0.39464000  1.0
  O  O85  1  0.89512000  0.64435000  0.60536000  1.0
  O  O86  1  0.36217000  0.03153000  0.91223000  1.0
  O  O87  1  0.63783000  0.96846000  0.08778000  1.0
  O  O88  1  0.12947000  0.16155000  0.84950000  1.0
  O  O89  1  0.87055000  0.83843000  0.15050000  1.0
