# generated using pymatgen
data_Cd2H52C41(N3O4)2
_symmetry_space_group_name_H-M   'P 1'
_cell_length_a   12.37950000
_cell_length_b   12.42030000
_cell_length_c   15.25980000
_cell_angle_alpha   92.84550000
_cell_angle_beta   92.90840000
_cell_angle_gamma   98.10810000
_symmetry_Int_Tables_number   1
_chemical_formula_structural   Cd2H52C41(N3O4)2
_chemical_formula_sum   'Cd4 H104 C82 N12 O16'
_cell_volume   2316.02530123
_cell_formula_units_Z   2
loop_
 _symmetry_equiv_pos_site_id
 _symmetry_equiv_pos_as_xyz
  1  'x, y, z'
loop_
 _atom_site_type_symbol
 _atom_site_label
 _atom_site_symmetry_multiplicity
 _atom_site_fract_x
 _atom_site_fract_y
 _atom_site_fract_z
 _atom_site_occupancy
  Cd  Cd0  1  0.38281000  0.48366000  0.57829000  1.0
  Cd  Cd1  1  0.61719000  0.51634000  0.42171000  1.0
  Cd  Cd2  1  0.19780000  0.82861000  0.14523000  1.0
  Cd  Cd3  1  0.80221000  0.17140000  0.85477000  1.0
  H  H4  1  0.27083000  0.91132000  0.65002000  1.0
  H  H5  1  0.72917000  0.08868000  0.34998000  1.0
  H  H6  1  0.22444000  0.98043000  0.74160000  1.0
  H  H7  1  0.77555000  0.01957000  0.25840000  1.0
  H  H8  1  0.17280000  0.00025000  0.63516000  1.0
  H  H9  1  0.82719000  0.99975000  0.36485000  1.0
  H  H10  1  0.00323000  0.68507000  0.90302000  1.0
  H  H11  1  0.99677000  0.31492000  0.09698000  1.0
  H  H12  1  0.88053000  0.62004000  0.84947000  1.0
  H  H13  1  0.11947000  0.37996000  0.15053000  1.0
  H  H14  1  0.89323000  0.75978000  0.88266000  1.0
  H  H15  1  0.10676000  0.24022000  0.11734000  1.0
  H  H16  1  0.90650000  0.54828000  0.53390000  1.0
  H  H17  1  0.09350000  0.45172000  0.46610000  1.0
  H  H18  1  0.98830000  0.63964000  0.47202000  1.0
  H  H19  1  0.01170000  0.36036000  0.52798000  1.0
  H  H20  1  0.85653000  0.66572000  0.49769000  1.0
  H  H21  1  0.14347000  0.33428000  0.50231000  1.0
  H  H22  1  0.10682000  0.81959000  0.90449000  1.0
  H  H23  1  0.89318000  0.18040000  0.09551000  1.0
  H  H24  1  0.20447000  0.89741000  0.84518000  1.0
  H  H25  1  0.79553000  0.10258000  0.15482000  1.0
  H  H26  1  0.91531000  0.94523000  0.79553000  1.0
  H  H27  1  0.08469000  0.05477000  0.20448000  1.0
  H  H28  1  0.04917000  0.20668000  0.97220000  1.0
  H  H29  1  0.95085000  0.79332000  0.02779000  1.0
  H  H30  1  0.19624000  0.05478000  0.96330000  1.0
  H  H31  1  0.80377000  0.94520000  0.03670000  1.0
  H  H32  1  0.78164000  0.60123000  0.73855000  1.0
  H  H33  1  0.21836000  0.39877000  0.26144000  1.0
  H  H34  1  0.79428000  0.56645000  0.62715000  1.0
  H  H35  1  0.20571000  0.43356000  0.37285000  1.0
  H  H36  1  0.03098000  0.48134000  0.65772000  1.0
  H  H37  1  0.96901000  0.51867000  0.34228000  1.0
  H  H38  1  0.01702000  0.27582000  0.72210000  1.0
  H  H39  1  0.98298000  0.72419000  0.27790000  1.0
  H  H40  1  0.73935000  0.41381000  0.79171000  1.0
  H  H41  1  0.26065000  0.58620000  0.20829000  1.0
  H  H42  1  0.05152000  0.79949000  0.46437000  1.0
  H  H43  1  0.94848000  0.20051000  0.53563000  1.0
  H  H44  1  0.15505000  0.89360000  0.52044000  1.0
  H  H45  1  0.84495000  0.10640000  0.47956000  1.0
  H  H46  1  0.25374000  0.80473000  0.37999000  1.0
  H  H47  1  0.74626000  0.19527000  0.62001000  1.0
  H  H48  1  0.38044000  0.63633000  0.39013000  1.0
  H  H49  1  0.61956000  0.36367000  0.60987000  1.0
  H  H50  1  0.18203000  0.62866000  0.60707000  1.0
  H  H51  1  0.81799000  0.37135000  0.39293000  1.0
  H  H52  1  0.37177000  0.42503000  0.87103000  1.0
  H  H53  1  0.62823000  0.57497000  0.12897000  1.0
  H  H54  1  0.20264000  0.32855000  0.89340000  1.0
  H  H55  1  0.79736000  0.67144000  0.10660000  1.0
  H  H56  1  0.13928000  0.39058000  0.80702000  1.0
  H  H57  1  0.86072000  0.60942000  0.19297000  1.0
  H  H58  1  0.09220000  0.53210000  0.90070000  1.0
  H  H59  1  0.90780000  0.46790000  0.09930000  1.0
  H  H60  1  0.09951000  0.43876000  0.98264000  1.0
  H  H61  1  0.90049000  0.56124000  0.01736000  1.0
  H  H62  1  0.25182000  0.46474000  0.09232000  1.0
  H  H63  1  0.74817000  0.53526000  0.90768000  1.0
  H  H64  1  0.37954000  0.54314000  0.07521000  1.0
  H  H65  1  0.62045000  0.45685000  0.92479000  1.0
  H  H66  1  0.33346000  0.42035000  0.01032000  1.0
  H  H67  1  0.66654000  0.57964000  0.98968000  1.0
  H  H68  1  0.44647000  0.70422000  0.95727000  1.0
  H  H69  1  0.55352000  0.29578000  0.04274000  1.0
  H  H70  1  0.48379000  0.63975000  0.85803000  1.0
  H  H71  1  0.51621000  0.36025000  0.14197000  1.0
  H  H72  1  0.47919000  0.56929000  0.95594000  1.0
  H  H73  1  0.52081000  0.43071000  0.04406000  1.0
  H  H74  1  0.27899000  0.74415000  0.87447000  1.0
  H  H75  1  0.72101000  0.25584000  0.12553000  1.0
  H  H76  1  0.18500000  0.63942000  0.81662000  1.0
  H  H77  1  0.81499000  0.36058000  0.18338000  1.0
  H  H78  1  0.31666000  0.67752000  0.77780000  1.0
  H  H79  1  0.68334000  0.32247000  0.22221000  1.0
  H  H80  1  0.49860000  0.17104000  0.47063000  1.0
  H  H81  1  0.50140000  0.82897000  0.52937000  1.0
  H  H82  1  0.52217000  0.31018000  0.31429000  1.0
  H  H83  1  0.47783000  0.68982000  0.68571000  1.0
  H  H84  1  0.61542000  0.23227000  0.36193000  1.0
  H  H85  1  0.38458000  0.76774000  0.63807000  1.0
  H  H86  1  0.55677000  0.09820000  0.24535000  1.0
  H  H87  1  0.44323000  0.90180000  0.75465000  1.0
  H  H88  1  0.44739000  0.16585000  0.21387000  1.0
  H  H89  1  0.55261000  0.83415000  0.78613000  1.0
  H  H90  1  0.53863000  0.02129000  0.41173000  1.0
  H  H91  1  0.46138000  0.97871000  0.58827000  1.0
  H  H92  1  0.51599000  0.92836000  0.31845000  1.0
  H  H93  1  0.48401000  0.07164000  0.68155000  1.0
  H  H94  1  0.42255000  0.91845000  0.40293000  1.0
  H  H95  1  0.57745000  0.08155000  0.59707000  1.0
  H  H96  1  0.20433000  0.13004000  0.30424000  1.0
  H  H97  1  0.79567000  0.86996000  0.69577000  1.0
  H  H98  1  0.24078000  0.24561000  0.37741000  1.0
  H  H99  1  0.75922000  0.75439000  0.62259000  1.0
  H  H100  1  0.31073000  0.23439000  0.27907000  1.0
  H  H101  1  0.68927000  0.76561000  0.72093000  1.0
  H  H102  1  0.34901000  0.02679000  0.49614000  1.0
  H  H103  1  0.65099000  0.97321000  0.50386000  1.0
  H  H104  1  0.22707000  0.01096000  0.42637000  1.0
  H  H105  1  0.77294000  0.98905000  0.57363000  1.0
  H  H106  1  0.26360000  0.12931000  0.50016000  1.0
  H  H107  1  0.73641000  0.87069000  0.49984000  1.0
  C  C108  1  0.06315000  0.78488000  0.60553000  1.0
  C  C109  1  0.93685000  0.21511000  0.39446000  1.0
  C  C110  1  0.10748000  0.84455000  0.68332000  1.0
  C  C111  1  0.89252000  0.15545000  0.31668000  1.0
  C  C112  1  0.06662000  0.81420000  0.76443000  1.0
  C  C113  1  0.93338000  0.18579000  0.23557000  1.0
  C  C114  1  0.98043000  0.72714000  0.76765000  1.0
  C  C115  1  0.01957000  0.27286000  0.23235000  1.0
  C  C116  1  0.93512000  0.67084000  0.68898000  1.0
  C  C117  1  0.06488000  0.32916000  0.31102000  1.0
  C  C118  1  0.97714000  0.69802000  0.60764000  1.0
  C  C119  1  0.02286000  0.30199000  0.39236000  1.0
  C  C120  1  0.19826000  0.93844000  0.67781000  1.0
  C  C121  1  0.80174000  0.06156000  0.32220000  1.0
  C  C122  1  0.93717000  0.69616000  0.85471000  1.0
  C  C123  1  0.06283000  0.30383000  0.14529000  1.0
  C  C124  1  0.93030000  0.63499000  0.52392000  1.0
  C  C125  1  0.06969000  0.36501000  0.47608000  1.0
  C  C126  1  0.11639000  0.87281000  0.84924000  1.0
  C  C127  1  0.88361000  0.12719000  0.15076000  1.0
  C  C128  1  0.97056000  0.99643000  0.84275000  1.0
  C  C129  1  0.02944000  0.00356000  0.15725000  1.0
  C  C130  1  0.04349000  0.12933000  0.93504000  1.0
  C  C131  1  0.95653000  0.87066000  0.06496000  1.0
  C  C132  1  0.11668000  0.05592000  0.93051000  1.0
  C  C133  1  0.88332000  0.94407000  0.06948000  1.0
  C  C134  1  0.84006000  0.58045000  0.69109000  1.0
  C  C135  1  0.15993000  0.41956000  0.30891000  1.0
  C  C136  1  0.96653000  0.43511000  0.69133000  1.0
  C  C137  1  0.03346000  0.56488000  0.30867000  1.0
  C  C138  1  0.95966000  0.33406000  0.72550000  1.0
  C  C139  1  0.04034000  0.66596000  0.27450000  1.0
  C  C140  1  0.81615000  0.40259000  0.76388000  1.0
  C  C141  1  0.18384000  0.59741000  0.23612000  1.0
  C  C142  1  0.11327000  0.80975000  0.51952000  1.0
  C  C143  1  0.88673000  0.19025000  0.48048000  1.0
  C  C144  1  0.25849000  0.74310000  0.42790000  1.0
  C  C145  1  0.74151000  0.25691000  0.57209000  1.0
  C  C146  1  0.31971000  0.65923000  0.43349000  1.0
  C  C147  1  0.68029000  0.34077000  0.56650000  1.0
  C  C148  1  0.21764000  0.65186000  0.54614000  1.0
  C  C149  1  0.78237000  0.34815000  0.45386000  1.0
  C  C150  1  0.32361000  0.47296000  0.74685000  1.0
  C  C151  1  0.67639000  0.52704000  0.25315000  1.0
  C  C152  1  0.30587000  0.46678000  0.84434000  1.0
  C  C153  1  0.69413000  0.53321000  0.15566000  1.0
  C  C154  1  0.19325000  0.40736000  0.86645000  1.0
  C  C155  1  0.80675000  0.59263000  0.13354000  1.0
  C  C156  1  0.14730000  0.48295000  0.93355000  1.0
  C  C157  1  0.85270000  0.51704000  0.06645000  1.0
  C  C158  1  0.24865000  0.55704000  0.97555000  1.0
  C  C159  1  0.75135000  0.44296000  0.02446000  1.0
  C  C160  1  0.31947000  0.58259000  0.89362000  1.0
  C  C161  1  0.68053000  0.41741000  0.10638000  1.0
  C  C162  1  0.22275000  0.66206000  0.02221000  1.0
  C  C163  1  0.77724000  0.33794000  0.97779000  1.0
  C  C164  1  0.30784000  0.49314000  0.04202000  1.0
  C  C165  1  0.69216000  0.50686000  0.95798000  1.0
  C  C166  1  0.43925000  0.62669000  0.91797000  1.0
  C  C167  1  0.56074000  0.37331000  0.08203000  1.0
  C  C168  1  0.27125000  0.66521000  0.83730000  1.0
  C  C169  1  0.72875000  0.33479000  0.16270000  1.0
  C  C170  1  0.42664000  0.31292000  0.46653000  1.0
  C  C171  1  0.57336000  0.68709000  0.53347000  1.0
  C  C172  1  0.45660000  0.21165000  0.41927000  1.0
  C  C173  1  0.54340000  0.78835000  0.58073000  1.0
  C  C174  1  0.52915000  0.23065000  0.34060000  1.0
  C  C175  1  0.47086000  0.76936000  0.65940000  1.0
  C  C176  1  0.48947000  0.13687000  0.27111000  1.0
  C  C177  1  0.51053000  0.86313000  0.72889000  1.0
  C  C178  1  0.41006000  0.05429000  0.31746000  1.0
  C  C179  1  0.58994000  0.94571000  0.68254000  1.0
  C  C180  1  0.35506000  0.12900000  0.38311000  1.0
  C  C181  1  0.64494000  0.87100000  0.61689000  1.0
  C  C182  1  0.32583000  0.98320000  0.25438000  1.0
  C  C183  1  0.67418000  0.01680000  0.74562000  1.0
  C  C184  1  0.47513000  0.97594000  0.36584000  1.0
  C  C185  1  0.52488000  0.02406000  0.63416000  1.0
  C  C186  1  0.27370000  0.18858000  0.33233000  1.0
  C  C187  1  0.72629000  0.81142000  0.66767000  1.0
  C  C188  1  0.29503000  0.07003000  0.45596000  1.0
  C  C189  1  0.70497000  0.92997000  0.54405000  1.0
  N  N190  1  0.06935000  0.97249000  0.87147000  1.0
  N  N191  1  0.93066000  0.02751000  0.12853000  1.0
  N  N192  1  0.95282000  0.09104000  0.88023000  1.0
  N  N193  1  0.04719000  0.90897000  0.11977000  1.0
  N  N194  1  0.87455000  0.47738000  0.71619000  1.0
  N  N195  1  0.12545000  0.52262000  0.28380000  1.0
  N  N196  1  0.86640000  0.31548000  0.77117000  1.0
  N  N197  1  0.13360000  0.68452000  0.22883000  1.0
  N  N198  1  0.19461000  0.73721000  0.49979000  1.0
  N  N199  1  0.80539000  0.26279000  0.50021000  1.0
  N  N200  1  0.29328000  0.60297000  0.50725000  1.0
  N  N201  1  0.70672000  0.39704000  0.49275000  1.0
  O  O202  1  0.24358000  0.46965000  0.69032000  1.0
  O  O203  1  0.75642000  0.53035000  0.30968000  1.0
  O  O204  1  0.42328000  0.48361000  0.72460000  1.0
  O  O205  1  0.57672000  0.51640000  0.27540000  1.0
  O  O206  1  0.29735000  0.71336000  0.07690000  1.0
  O  O207  1  0.70265000  0.28663000  0.92310000  1.0
  O  O208  1  0.13137000  0.69507000  0.00790000  1.0
  O  O209  1  0.86863000  0.30492000  0.99210000  1.0
  O  O210  1  0.44624000  0.40700000  0.43462000  1.0
  O  O211  1  0.55376000  0.59301000  0.56538000  1.0
  O  O212  1  0.38099000  0.30181000  0.53932000  1.0
  O  O213  1  0.61900000  0.69820000  0.46068000  1.0
  O  O214  1  0.25098000  0.91879000  0.28806000  1.0
  O  O215  1  0.74903000  0.08121000  0.71194000  1.0
  O  O216  1  0.33375000  0.98585000  0.17162000  1.0
  O  O217  1  0.66626000  0.01415000  0.82838000  1.0
