# generated using pymatgen
data_Ni3H36C30(NO12)2
_symmetry_space_group_name_H-M   'P 1'
_cell_length_a   12.26790000
_cell_length_b   12.46070000
_cell_length_c   17.37340000
_cell_angle_alpha   90.00020000
_cell_angle_beta   90.00030000
_cell_angle_gamma   65.43600000
_symmetry_Int_Tables_number   1
_chemical_formula_structural   Ni3H36C30(NO12)2
_chemical_formula_sum   'Ni6 H72 C60 N4 O48'
_cell_volume   2415.45521393
_cell_formula_units_Z   2
loop_
 _symmetry_equiv_pos_site_id
 _symmetry_equiv_pos_as_xyz
  1  'x, y, z'
loop_
 _atom_site_type_symbol
 _atom_site_label
 _atom_site_symmetry_multiplicity
 _atom_site_fract_x
 _atom_site_fract_y
 _atom_site_fract_z
 _atom_site_occupancy
  Ni  Ni0  1  0.50000000  0.00000000  0.50000000  1.0
  Ni  Ni1  1  0.50000000  0.50000000  0.00000000  1.0
  Ni  Ni2  1  0.06458000  0.83924000  0.70019000  1.0
  Ni  Ni3  1  0.93542000  0.66077000  0.20019000  1.0
  Ni  Ni4  1  0.93542000  0.16077000  0.29981000  1.0
  Ni  Ni5  1  0.06458000  0.33924000  0.79981000  1.0
  H  H6  1  0.36801000  0.25046000  0.67470000  1.0
  H  H7  1  0.63198000  0.24954000  0.17470000  1.0
  H  H8  1  0.63198000  0.74953000  0.32530000  1.0
  H  H9  1  0.36802000  0.75046000  0.82530000  1.0
  H  H10  1  0.40840000  0.53709000  0.79138000  1.0
  H  H11  1  0.59160000  0.96291000  0.29138000  1.0
  H  H12  1  0.59160000  0.46290000  0.20862000  1.0
  H  H13  1  0.40839000  0.03710000  0.70862000  1.0
  H  H14  1  0.66306000  0.33567000  0.61806000  1.0
  H  H15  1  0.33694000  0.16433000  0.11806000  1.0
  H  H16  1  0.33695000  0.66433000  0.38194000  1.0
  H  H17  1  0.66306000  0.83567000  0.88194000  1.0
  H  H18  1  0.59737000  0.55918000  0.77320000  1.0
  H  H19  1  0.40262000  0.94082000  0.27319000  1.0
  H  H20  1  0.40262000  0.44082000  0.22681000  1.0
  H  H21  1  0.59737000  0.05918000  0.72681000  1.0
  H  H22  1  0.70081000  0.47832000  0.69903000  1.0
  H  H23  1  0.29918000  0.02168000  0.19903000  1.0
  H  H24  1  0.29919000  0.52168000  0.30098000  1.0
  H  H25  1  0.70081000  0.97832000  0.80097000  1.0
  H  H26  1  0.74923000  0.62613000  0.73107000  1.0
  H  H27  1  0.25078000  0.87386000  0.23107000  1.0
  H  H28  1  0.25078000  0.37387000  0.26894000  1.0
  H  H29  1  0.74923000  0.12613000  0.76894000  1.0
  H  H30  1  0.72309000  0.92339000  0.59377000  1.0
  H  H31  1  0.27692000  0.57660000  0.09378000  1.0
  H  H32  1  0.27691000  0.07661000  0.40623000  1.0
  H  H33  1  0.72308000  0.42340000  0.90623000  1.0
  H  H34  1  0.46410000  0.79212000  0.56649000  1.0
  H  H35  1  0.53590000  0.70787000  0.06649000  1.0
  H  H36  1  0.53591000  0.20787000  0.43351000  1.0
  H  H37  1  0.46410000  0.29212000  0.93352000  1.0
  H  H38  1  0.67570000  0.05258000  0.48993000  1.0
  H  H39  1  0.32430000  0.44742000  0.98993000  1.0
  H  H40  1  0.32430000  0.94742000  0.51006000  1.0
  H  H41  1  0.67570000  0.55258000  0.01007000  1.0
  H  H42  1  0.69454000  0.98144000  0.41017000  1.0
  H  H43  1  0.30547000  0.51856000  0.91017000  1.0
  H  H44  1  0.30547000  0.01856000  0.58983000  1.0
  H  H45  1  0.69454000  0.48144000  0.08983000  1.0
  H  H46  1  0.15555000  0.68472000  0.57976000  1.0
  H  H47  1  0.84445000  0.81528000  0.07976000  1.0
  H  H48  1  0.84445000  0.31528000  0.42023000  1.0
  H  H49  1  0.15555000  0.18472000  0.92024000  1.0
  H  H50  1  0.25051000  0.67035000  0.64317000  1.0
  H  H51  1  0.74948000  0.82966000  0.14317000  1.0
  H  H52  1  0.74948000  0.32966000  0.35683000  1.0
  H  H53  1  0.25051000  0.17034000  0.85683000  1.0
  H  H54  1  0.15353000  0.66405000  0.80468000  1.0
  H  H55  1  0.84647000  0.83595000  0.30469000  1.0
  H  H56  1  0.84647000  0.33595000  0.19531000  1.0
  H  H57  1  0.15353000  0.16405000  0.69531000  1.0
  H  H58  1  0.01354000  0.72270000  0.79421000  1.0
  H  H59  1  0.98645000  0.77730000  0.29421000  1.0
  H  H60  1  0.98646000  0.27730000  0.20580000  1.0
  H  H61  1  0.01354000  0.22271000  0.70579000  1.0
  H  H62  1  0.11209000  0.98449000  0.62469000  1.0
  H  H63  1  0.88791000  0.51551000  0.12469000  1.0
  H  H64  1  0.88790000  0.01551000  0.37531000  1.0
  H  H65  1  0.11209000  0.48449000  0.87531000  1.0
  H  H66  1  0.06975000  0.92502000  0.55680000  1.0
  H  H67  1  0.93025000  0.57498000  0.05680000  1.0
  H  H68  1  0.93025000  0.07498000  0.44320000  1.0
  H  H69  1  0.06975000  0.42502000  0.94320000  1.0
  H  H70  1  0.95020000  0.06270000  0.75598000  1.0
  H  H71  1  0.04980000  0.43731000  0.25598000  1.0
  H  H72  1  0.04980000  0.93731000  0.24403000  1.0
  H  H73  1  0.95020000  0.56270000  0.74402000  1.0
  H  H74  1  0.02410000  0.96570000  0.81869000  1.0
  H  H75  1  0.97590000  0.53430000  0.31869000  1.0
  H  H76  1  0.97590000  0.03430000  0.18131000  1.0
  H  H77  1  0.02410000  0.46570000  0.68131000  1.0
  C  C78  1  0.56224000  0.18285000  0.58310000  1.0
  C  C79  1  0.43776000  0.31715000  0.08310000  1.0
  C  C80  1  0.43776000  0.81715000  0.41690000  1.0
  C  C81  1  0.56224000  0.68285000  0.91690000  1.0
  C  C82  1  0.51997000  0.28286000  0.64032000  1.0
  C  C83  1  0.48003000  0.21714000  0.14032000  1.0
  C  C84  1  0.48004000  0.71714000  0.35968000  1.0
  C  C85  1  0.51997000  0.78286000  0.85968000  1.0
  C  C86  1  0.41683000  0.30502000  0.68338000  1.0
  C  C87  1  0.58317000  0.19498000  0.18338000  1.0
  C  C88  1  0.58317000  0.69498000  0.31662000  1.0
  C  C89  1  0.41684000  0.80502000  0.81662000  1.0
  C  C90  1  0.37601000  0.39603000  0.73763000  1.0
  C  C91  1  0.62399000  0.10396000  0.23762000  1.0
  C  C92  1  0.62399000  0.60396000  0.26237000  1.0
  C  C93  1  0.37600000  0.89603000  0.76237000  1.0
  C  C94  1  0.43835000  0.46693000  0.74836000  1.0
  C  C95  1  0.56165000  0.03308000  0.24836000  1.0
  C  C96  1  0.56166000  0.53307000  0.25164000  1.0
  C  C97  1  0.43835000  0.96693000  0.75164000  1.0
  C  C98  1  0.54134000  0.44591000  0.70511000  1.0
  C  C99  1  0.45866000  0.05409000  0.20511000  1.0
  C  C100  1  0.45866000  0.55408000  0.29489000  1.0
  C  C101  1  0.54134000  0.94592000  0.79489000  1.0
  C  C102  1  0.58186000  0.35400000  0.65134000  1.0
  C  C103  1  0.41814000  0.14600000  0.15134000  1.0
  C  C104  1  0.41815000  0.64600000  0.34865000  1.0
  C  C105  1  0.58186000  0.85400000  0.84865000  1.0
  C  C106  1  0.26741000  0.41311000  0.78362000  1.0
  C  C107  1  0.73258000  0.08689000  0.28362000  1.0
  C  C108  1  0.73258000  0.58689000  0.21637000  1.0
  C  C109  1  0.26741000  0.91311000  0.71638000  1.0
  C  C110  1  0.60522000  0.52470000  0.71414000  1.0
  C  C111  1  0.39478000  0.97531000  0.21413000  1.0
  C  C112  1  0.39478000  0.47530000  0.28587000  1.0
  C  C113  1  0.60522000  0.02470000  0.78586000  1.0
  C  C114  1  0.60092000  0.69692000  0.64985000  1.0
  C  C115  1  0.39908000  0.80308000  0.14985000  1.0
  C  C116  1  0.39909000  0.30308000  0.35015000  1.0
  C  C117  1  0.60092000  0.19692000  0.85015000  1.0
  C  C118  1  0.70392000  0.69126000  0.68695000  1.0
  C  C119  1  0.29609000  0.80873000  0.18696000  1.0
  C  C120  1  0.29609000  0.30874000  0.31305000  1.0
  C  C121  1  0.70391000  0.19126000  0.81305000  1.0
  C  C122  1  0.74933000  0.77312000  0.66552000  1.0
  C  C123  1  0.25068000  0.72688000  0.16553000  1.0
  C  C124  1  0.25067000  0.22688000  0.33448000  1.0
  C  C125  1  0.74933000  0.27312000  0.83448000  1.0
  C  C126  1  0.68903000  0.85926000  0.61093000  1.0
  C  C127  1  0.31098000  0.64073000  0.11093000  1.0
  C  C128  1  0.31098000  0.14073000  0.38907000  1.0
  C  C129  1  0.68902000  0.35927000  0.88907000  1.0
  C  C130  1  0.54502000  0.78648000  0.59561000  1.0
  C  C131  1  0.45498000  0.71352000  0.09561000  1.0
  C  C132  1  0.45498000  0.21351000  0.40439000  1.0
  C  C133  1  0.54502000  0.28649000  0.90439000  1.0
  C  C134  1  0.86188000  0.76932000  0.70122000  1.0
  C  C135  1  0.13812000  0.73068000  0.20123000  1.0
  C  C136  1  0.13812000  0.23069000  0.29878000  1.0
  C  C137  1  0.86189000  0.26932000  0.79878000  1.0
  N  N138  1  0.58749000  0.86620000  0.57738000  1.0
  N  N139  1  0.41252000  0.63380000  0.07738000  1.0
  N  N140  1  0.41252000  0.13380000  0.42262000  1.0
  N  N141  1  0.58748000  0.36620000  0.92262000  1.0
  O  O142  1  0.50105000  0.12095000  0.58136000  1.0
  O  O143  1  0.49895000  0.37905000  0.08135000  1.0
  O  O144  1  0.49896000  0.87904000  0.41865000  1.0
  O  O145  1  0.50105000  0.62096000  0.91865000  1.0
  O  O146  1  0.65293000  0.16728000  0.54155000  1.0
  O  O147  1  0.34706000  0.33273000  0.04156000  1.0
  O  O148  1  0.34707000  0.83272000  0.45845000  1.0
  O  O149  1  0.65293000  0.66728000  0.95845000  1.0
  O  O150  1  0.22008000  0.50314000  0.82793000  1.0
  O  O151  1  0.77992000  0.99686000  0.32793000  1.0
  O  O152  1  0.77992000  0.49686000  0.17207000  1.0
  O  O153  1  0.22008000  0.00314000  0.67207000  1.0
  O  O154  1  0.22783000  0.33392000  0.77574000  1.0
  O  O155  1  0.77217000  0.16607000  0.27573000  1.0
  O  O156  1  0.77217000  0.66608000  0.22426000  1.0
  O  O157  1  0.22783000  0.83393000  0.72426000  1.0
  O  O158  1  0.54736000  0.62230000  0.66128000  1.0
  O  O159  1  0.45264000  0.87770000  0.16128000  1.0
  O  O160  1  0.45265000  0.37769000  0.33873000  1.0
  O  O161  1  0.54736000  0.12230000  0.83873000  1.0
  O  O162  1  0.90907000  0.83215000  0.66994000  1.0
  O  O163  1  0.09094000  0.66785000  0.16994000  1.0
  O  O164  1  0.09094000  0.16785000  0.33006000  1.0
  O  O165  1  0.90906000  0.33216000  0.83006000  1.0
  O  O166  1  0.90292000  0.70326000  0.76035000  1.0
  O  O167  1  0.09709000  0.79675000  0.26035000  1.0
  O  O168  1  0.09708000  0.29675000  0.23965000  1.0
  O  O169  1  0.90292000  0.20326000  0.73965000  1.0
  O  O170  1  0.67113000  0.98130000  0.46432000  1.0
  O  O171  1  0.32887000  0.51870000  0.96432000  1.0
  O  O172  1  0.32887000  0.01870000  0.53568000  1.0
  O  O173  1  0.67113000  0.48130000  0.03568000  1.0
  O  O174  1  0.16816000  0.67954000  0.63521000  1.0
  O  O175  1  0.83184000  0.82046000  0.13521000  1.0
  O  O176  1  0.83184000  0.32046000  0.36478000  1.0
  O  O177  1  0.16815000  0.17954000  0.86479000  1.0
  O  O178  1  0.08545000  0.74217000  0.80120000  1.0
  O  O179  1  0.91455000  0.75783000  0.30120000  1.0
  O  O180  1  0.91455000  0.25783000  0.19880000  1.0
  O  O181  1  0.08545000  0.24217000  0.69880000  1.0
  O  O182  1  0.04712000  0.95922000  0.60790000  1.0
  O  O183  1  0.95287000  0.54078000  0.10790000  1.0
  O  O184  1  0.95288000  0.04078000  0.39210000  1.0
  O  O185  1  0.04712000  0.45922000  0.89210000  1.0
  O  O186  1  0.97369000  0.97877000  0.77330000  1.0
  O  O187  1  0.02631000  0.52123000  0.27331000  1.0
  O  O188  1  0.02631000  0.02123000  0.22670000  1.0
  O  O189  1  0.97368000  0.47877000  0.72669000  1.0
