# generated using pymatgen
data_NaH10C13N5O2
_symmetry_space_group_name_H-M   'P 1'
_cell_length_a   9.80460000
_cell_length_b   15.97440000
_cell_length_c   18.01680000
_cell_angle_alpha   89.99910000
_cell_angle_beta   90.00080000
_cell_angle_gamma   89.99950000
_symmetry_Int_Tables_number   1
_chemical_formula_structural   NaH10C13N5O2
_chemical_formula_sum   'Na8 H80 C104 N40 O16'
_cell_volume   2821.83809931
_cell_formula_units_Z   8
loop_
 _symmetry_equiv_pos_site_id
 _symmetry_equiv_pos_as_xyz
  1  'x, y, z'
loop_
 _atom_site_type_symbol
 _atom_site_label
 _atom_site_symmetry_multiplicity
 _atom_site_fract_x
 _atom_site_fract_y
 _atom_site_fract_z
 _atom_site_occupancy
  Na  Na0  1  0.86353000  0.87843000  0.20826000  1.0
  Na  Na1  1  0.13648000  0.62157000  0.70827000  1.0
  Na  Na2  1  0.63646000  0.37843000  0.79174000  1.0
  Na  Na3  1  0.36353000  0.12158000  0.29175000  1.0
  Na  Na4  1  0.13648000  0.12157000  0.79172000  1.0
  Na  Na5  1  0.86356000  0.37843000  0.29173000  1.0
  Na  Na6  1  0.36352000  0.62158000  0.20826000  1.0
  Na  Na7  1  0.63649000  0.87842000  0.70826000  1.0
  H  H8  1  0.75585000  0.02248000  0.17399000  1.0
  H  H9  1  0.24415000  0.47753000  0.67400000  1.0
  H  H10  1  0.74415000  0.52247000  0.82600000  1.0
  H  H11  1  0.25585000  0.97752000  0.32602000  1.0
  H  H12  1  0.24414000  0.97752000  0.82601000  1.0
  H  H13  1  0.75586000  0.52247000  0.32599000  1.0
  H  H14  1  0.25586000  0.47753000  0.17399000  1.0
  H  H15  1  0.74415000  0.02248000  0.67399000  1.0
  H  H16  1  0.64842000  0.95733000  0.14190000  1.0
  H  H17  1  0.35155000  0.54268000  0.64189000  1.0
  H  H18  1  0.85156000  0.45732000  0.85810000  1.0
  H  H19  1  0.14845000  0.04267000  0.35812000  1.0
  H  H20  1  0.35156000  0.04266000  0.85810000  1.0
  H  H21  1  0.64845000  0.45732000  0.35810000  1.0
  H  H22  1  0.14844000  0.54268000  0.14189000  1.0
  H  H23  1  0.85156000  0.95733000  0.64189000  1.0
  H  H24  1  0.59580000  0.10981000  0.16562000  1.0
  H  H25  1  0.40421000  0.39019000  0.66560000  1.0
  H  H26  1  0.90421000  0.60979000  0.83438000  1.0
  H  H27  1  0.09579000  0.89020000  0.33439000  1.0
  H  H28  1  0.40421000  0.89019000  0.83439000  1.0
  H  H29  1  0.59578000  0.60980000  0.33438000  1.0
  H  H30  1  0.09580000  0.39020000  0.16561000  1.0
  H  H31  1  0.90418000  0.10981000  0.66561000  1.0
  H  H32  1  0.43380000  0.18911000  0.08645000  1.0
  H  H33  1  0.56621000  0.31088000  0.58645000  1.0
  H  H34  1  0.06621000  0.68909000  0.91355000  1.0
  H  H35  1  0.93380000  0.81089000  0.41356000  1.0
  H  H36  1  0.56621000  0.81089000  0.91355000  1.0
  H  H37  1  0.43378000  0.68911000  0.41354000  1.0
  H  H38  1  0.93380000  0.31089000  0.08645000  1.0
  H  H39  1  0.06618000  0.18912000  0.58645000  1.0
  H  H40  1  0.44950000  0.34672000  0.08267000  1.0
  H  H41  1  0.55050000  0.15328000  0.58267000  1.0
  H  H42  1  0.05048000  0.84670000  0.91734000  1.0
  H  H43  1  0.94953000  0.65329000  0.41734000  1.0
  H  H44  1  0.55050000  0.65328000  0.91734000  1.0
  H  H45  1  0.44951000  0.84671000  0.41732000  1.0
  H  H46  1  0.94951000  0.15329000  0.08267000  1.0
  H  H47  1  0.05046000  0.34672000  0.58267000  1.0
  H  H48  1  0.62751000  0.41679000  0.16129000  1.0
  H  H49  1  0.37249000  0.08320000  0.66129000  1.0
  H  H50  1  0.87248000  0.91677000  0.83871000  1.0
  H  H51  1  0.12752000  0.58322000  0.33870000  1.0
  H  H52  1  0.37248000  0.58321000  0.83872000  1.0
  H  H53  1  0.62752000  0.91678000  0.33871000  1.0
  H  H54  1  0.12752000  0.08322000  0.16129000  1.0
  H  H55  1  0.87245000  0.41680000  0.66129000  1.0
  H  H56  1  0.15965000  0.13854000  0.44039000  1.0
  H  H57  1  0.84033000  0.36144000  0.94038000  1.0
  H  H58  1  0.34034000  0.63854000  0.55962000  1.0
  H  H59  1  0.65964000  0.86147000  0.05962000  1.0
  H  H60  1  0.84034000  0.86145000  0.55961000  1.0
  H  H61  1  0.15969000  0.63857000  0.05962000  1.0
  H  H62  1  0.65966000  0.36145000  0.44038000  1.0
  H  H63  1  0.34035000  0.13854000  0.94038000  1.0
  H  H64  1  0.31160000  0.23263000  0.51442000  1.0
  H  H65  1  0.68838000  0.26732000  0.01440000  1.0
  H  H66  1  0.18839000  0.73265000  0.48559000  1.0
  H  H67  1  0.81158000  0.76737000  0.98559000  1.0
  H  H68  1  0.68837000  0.76735000  0.48559000  1.0
  H  H69  1  0.31164000  0.73269000  0.98561000  1.0
  H  H70  1  0.81162000  0.26735000  0.51441000  1.0
  H  H71  1  0.18839000  0.23263000  0.01441000  1.0
  H  H72  1  0.29030000  0.38882000  0.49784000  1.0
  H  H73  1  0.70970000  0.11114000  0.99781000  1.0
  H  H74  1  0.20971000  0.88884000  0.50218000  1.0
  H  H75  1  0.79029000  0.61118000  0.00218000  1.0
  H  H76  1  0.70968000  0.61116000  0.50218000  1.0
  H  H77  1  0.29031000  0.88887000  0.00220000  1.0
  H  H78  1  0.79032000  0.11116000  0.49782000  1.0
  H  H79  1  0.20969000  0.38882000  0.99783000  1.0
  H  H80  1  0.11764000  0.44250000  0.40726000  1.0
  H  H81  1  0.88239000  0.05748000  0.90723000  1.0
  H  H82  1  0.38239000  0.94251000  0.59275000  1.0
  H  H83  1  0.61761000  0.55751000  0.09275000  1.0
  H  H84  1  0.88238000  0.55749000  0.59274000  1.0
  H  H85  1  0.11761000  0.94253000  0.09277000  1.0
  H  H86  1  0.61762000  0.05749000  0.40725000  1.0
  H  H87  1  0.38237000  0.44251000  0.90726000  1.0
  C  C88  1  0.80109000  0.17851000  0.25204000  1.0
  C  C89  1  0.19892000  0.32148000  0.75203000  1.0
  C  C90  1  0.69891000  0.67850000  0.74796000  1.0
  C  C91  1  0.30108000  0.82150000  0.24796000  1.0
  C  C92  1  0.19891000  0.82149000  0.74795000  1.0
  C  C93  1  0.80110000  0.67851000  0.24796000  1.0
  C  C94  1  0.30109000  0.32150000  0.25204000  1.0
  C  C95  1  0.69891000  0.17852000  0.75204000  1.0
  C  C96  1  0.90879000  0.05765000  0.29254000  1.0
  C  C97  1  0.09125000  0.44234000  0.79253000  1.0
  C  C98  1  0.59122000  0.55765000  0.70746000  1.0
  C  C99  1  0.40876000  0.94236000  0.20747000  1.0
  C  C100  1  0.09121000  0.94234000  0.70746000  1.0
  C  C101  1  0.90879000  0.55766000  0.20746000  1.0
  C  C102  1  0.40879000  0.44235000  0.29254000  1.0
  C  C103  1  0.59121000  0.05765000  0.79253000  1.0
  C  C104  1  0.97039000  0.18798000  0.33768000  1.0
  C  C105  1  0.02964000  0.31202000  0.83767000  1.0
  C  C106  1  0.52963000  0.68798000  0.66233000  1.0
  C  C107  1  0.47035000  0.81203000  0.16233000  1.0
  C  C108  1  0.02962000  0.81201000  0.66232000  1.0
  C  C109  1  0.97038000  0.68799000  0.16232000  1.0
  C  C110  1  0.47037000  0.31202000  0.33768000  1.0
  C  C111  1  0.52962000  0.18798000  0.83767000  1.0
  C  C112  1  0.69937000  0.22208000  0.20366000  1.0
  C  C113  1  0.30063000  0.27792000  0.70365000  1.0
  C  C114  1  0.80063000  0.72206000  0.79634000  1.0
  C  C115  1  0.19936000  0.77794000  0.29634000  1.0
  C  C116  1  0.30062000  0.77792000  0.79634000  1.0
  C  C117  1  0.69937000  0.72207000  0.29634000  1.0
  C  C118  1  0.19937000  0.27793000  0.20366000  1.0
  C  C119  1  0.80062000  0.22209000  0.70366000  1.0
  C  C120  1  0.60283000  0.17764000  0.16215000  1.0
  C  C121  1  0.39717000  0.32236000  0.66213000  1.0
  C  C122  1  0.89718000  0.67762000  0.83785000  1.0
  C  C123  1  0.10283000  0.82237000  0.33786000  1.0
  C  C124  1  0.39718000  0.82236000  0.83786000  1.0
  C  C125  1  0.60282000  0.67763000  0.33785000  1.0
  C  C126  1  0.10282000  0.32237000  0.16214000  1.0
  C  C127  1  0.89716000  0.17764000  0.66215000  1.0
  C  C128  1  0.51123000  0.22234000  0.11825000  1.0
  C  C129  1  0.48878000  0.27766000  0.61824000  1.0
  C  C130  1  0.98878000  0.72232000  0.88175000  1.0
  C  C131  1  0.01122000  0.77767000  0.38175000  1.0
  C  C132  1  0.48878000  0.77767000  0.88175000  1.0
  C  C133  1  0.51121000  0.72233000  0.38174000  1.0
  C  C134  1  0.01122000  0.27768000  0.11825000  1.0
  C  C135  1  0.98876000  0.22234000  0.61825000  1.0
  C  C136  1  0.51925000  0.30950000  0.11624000  1.0
  C  C137  1  0.48076000  0.19050000  0.61623000  1.0
  C  C138  1  0.98074000  0.80948000  0.88376000  1.0
  C  C139  1  0.01925000  0.69052000  0.38377000  1.0
  C  C140  1  0.48075000  0.69050000  0.88377000  1.0
  C  C141  1  0.51924000  0.80949000  0.38376000  1.0
  C  C142  1  0.01925000  0.19051000  0.11623000  1.0
  C  C143  1  0.98073000  0.30950000  0.61624000  1.0
  C  C144  1  0.61829000  0.34857000  0.15991000  1.0
  C  C145  1  0.38171000  0.15143000  0.65990000  1.0
  C  C146  1  0.88170000  0.84856000  0.84009000  1.0
  C  C147  1  0.11830000  0.65144000  0.34010000  1.0
  C  C148  1  0.38170000  0.65142000  0.84010000  1.0
  C  C149  1  0.61830000  0.84856000  0.34009000  1.0
  C  C150  1  0.11829000  0.15143000  0.15991000  1.0
  C  C151  1  0.88168000  0.34857000  0.65991000  1.0
  C  C152  1  0.06008000  0.24172000  0.38499000  1.0
  C  C153  1  0.93994000  0.25826000  0.88498000  1.0
  C  C154  1  0.43994000  0.74172000  0.61502000  1.0
  C  C155  1  0.56006000  0.75829000  0.11502000  1.0
  C  C156  1  0.93992000  0.75827000  0.61501000  1.0
  C  C157  1  0.06008000  0.74174000  0.11501000  1.0
  C  C158  1  0.56006000  0.25828000  0.38499000  1.0
  C  C159  1  0.43993000  0.24172000  0.88498000  1.0
  C  C160  1  0.15310000  0.20622000  0.43481000  1.0
  C  C161  1  0.84690000  0.29376000  0.93480000  1.0
  C  C162  1  0.34691000  0.70622000  0.56520000  1.0
  C  C163  1  0.65308000  0.79380000  0.06520000  1.0
  C  C164  1  0.84689000  0.79377000  0.56520000  1.0
  C  C165  1  0.15312000  0.70625000  0.06520000  1.0
  C  C166  1  0.65310000  0.29377000  0.43480000  1.0
  C  C167  1  0.34691000  0.20622000  0.93480000  1.0
  C  C168  1  0.23759000  0.25888000  0.47583000  1.0
  C  C169  1  0.76242000  0.24108000  0.97581000  1.0
  C  C170  1  0.26242000  0.75890000  0.52418000  1.0
  C  C171  1  0.73757000  0.74113000  0.02418000  1.0
  C  C172  1  0.76240000  0.74110000  0.52418000  1.0
  C  C173  1  0.23759000  0.75893000  0.02419000  1.0
  C  C174  1  0.73759000  0.24110000  0.47582000  1.0
  C  C175  1  0.26242000  0.25889000  0.97583000  1.0
  C  C176  1  0.22649000  0.34530000  0.46671000  1.0
  C  C177  1  0.77353000  0.15466000  0.96668000  1.0
  C  C178  1  0.27353000  0.84532000  0.53331000  1.0
  C  C179  1  0.72647000  0.65470000  0.03331000  1.0
  C  C180  1  0.77350000  0.65468000  0.53331000  1.0
  C  C181  1  0.22649000  0.84535000  0.03332000  1.0
  C  C182  1  0.72650000  0.15469000  0.46669000  1.0
  C  C183  1  0.27351000  0.34530000  0.96670000  1.0
  C  C184  1  0.12987000  0.37523000  0.41621000  1.0
  C  C185  1  0.87017000  0.12475000  0.91619000  1.0
  C  C186  1  0.37016000  0.87524000  0.58379000  1.0
  C  C187  1  0.62984000  0.62478000  0.08380000  1.0
  C  C188  1  0.87013000  0.62476000  0.58379000  1.0
  C  C189  1  0.12984000  0.87526000  0.08380000  1.0
  C  C190  1  0.62986000  0.12476000  0.41621000  1.0
  C  C191  1  0.37015000  0.37523000  0.91621000  1.0
  N  N192  1  0.87601000  0.22807000  0.29671000  1.0
  N  N193  1  0.12402000  0.27193000  0.79670000  1.0
  N  N194  1  0.62401000  0.72807000  0.70329000  1.0
  N  N195  1  0.37596000  0.77194000  0.20329000  1.0
  N  N196  1  0.12401000  0.77193000  0.70329000  1.0
  N  N197  1  0.87599000  0.72808000  0.20330000  1.0
  N  N198  1  0.37599000  0.27193000  0.29671000  1.0
  N  N199  1  0.62399000  0.22807000  0.79671000  1.0
  N  N200  1  0.81230000  0.09577000  0.24721000  1.0
  N  N201  1  0.18771000  0.40422000  0.74721000  1.0
  N  N202  1  0.68771000  0.59576000  0.75278000  1.0
  N  N203  1  0.31229000  0.90424000  0.25279000  1.0
  N  N204  1  0.18770000  0.90422000  0.75279000  1.0
  N  N205  1  0.81232000  0.59577000  0.25279000  1.0
  N  N206  1  0.31230000  0.40423000  0.24720000  1.0
  N  N207  1  0.68769000  0.09577000  0.74720000  1.0
  N  N208  1  0.99099000  0.10581000  0.33838000  1.0
  N  N209  1  0.00902000  0.39419000  0.83838000  1.0
  N  N210  1  0.50901000  0.60581000  0.66162000  1.0
  N  N211  1  0.49097000  0.89420000  0.16162000  1.0
  N  N212  1  0.00902000  0.89418000  0.66161000  1.0
  N  N213  1  0.99101000  0.60582000  0.16162000  1.0
  N  N214  1  0.49098000  0.39419000  0.33838000  1.0
  N  N215  1  0.50901000  0.10581000  0.83837000  1.0
  N  N216  1  0.04833000  0.32540000  0.37618000  1.0
  N  N217  1  0.95171000  0.17459000  0.87617000  1.0
  N  N218  1  0.45170000  0.82540000  0.62383000  1.0
  N  N219  1  0.54831000  0.67461000  0.12383000  1.0
  N  N220  1  0.95169000  0.67459000  0.62382000  1.0
  N  N221  1  0.04829000  0.82542000  0.12382000  1.0
  N  N222  1  0.54831000  0.17459000  0.37618000  1.0
  N  N223  1  0.45168000  0.32541000  0.87618000  1.0
  N  N224  1  0.70591000  0.30652000  0.20292000  1.0
  N  N225  1  0.29409000  0.19348000  0.70291000  1.0
  N  N226  1  0.79408000  0.80651000  0.79709000  1.0
  N  N227  1  0.20591000  0.69349000  0.29708000  1.0
  N  N228  1  0.29409000  0.69348000  0.79709000  1.0
  N  N229  1  0.70592000  0.80651000  0.29709000  1.0
  N  N230  1  0.20592000  0.19348000  0.20291000  1.0
  N  N231  1  0.79407000  0.30652000  0.70292000  1.0
  O  O232  1  0.92382000  0.97971000  0.29132000  1.0
  O  O233  1  0.07623000  0.52028000  0.79133000  1.0
  O  O234  1  0.57619000  0.47971000  0.70866000  1.0
  O  O235  1  0.42378000  0.02030000  0.20867000  1.0
  O  O236  1  0.07617000  0.02028000  0.70867000  1.0
  O  O237  1  0.92385000  0.47972000  0.20867000  1.0
  O  O238  1  0.42381000  0.52029000  0.29133000  1.0
  O  O239  1  0.57619000  0.97971000  0.79132000  1.0
  O  O240  1  0.74372000  0.97756000  0.13616000  1.0
  O  O241  1  0.25626000  0.52245000  0.63616000  1.0
  O  O242  1  0.75628000  0.47755000  0.86384000  1.0
  O  O243  1  0.24373000  0.02244000  0.36386000  1.0
  O  O244  1  0.25628000  0.02245000  0.86385000  1.0
  O  O245  1  0.74373000  0.47754000  0.36383000  1.0
  O  O246  1  0.24373000  0.52245000  0.13615000  1.0
  O  O247  1  0.75627000  0.97755000  0.63615000  1.0
