# generated using pymatgen
data_AgH8C8S2N2(ClO2)3
_symmetry_space_group_name_H-M   'P 1'
_cell_length_a   9.69765000
_cell_length_b   13.28660000
_cell_length_c   13.74030000
_cell_angle_alpha   103.52600000
_cell_angle_beta   109.45500000
_cell_angle_gamma   95.88780000
_symmetry_Int_Tables_number   1
_chemical_formula_structural   AgH8C8S2N2(ClO2)3
_chemical_formula_sum   'Ag4 H32 C32 S8 N8 Cl12 O24'
_cell_volume   1591.27179164
_cell_formula_units_Z   4
loop_
 _symmetry_equiv_pos_site_id
 _symmetry_equiv_pos_as_xyz
  1  'x, y, z'
loop_
 _atom_site_type_symbol
 _atom_site_label
 _atom_site_symmetry_multiplicity
 _atom_site_fract_x
 _atom_site_fract_y
 _atom_site_fract_z
 _atom_site_occupancy
  Ag  Ag0  1  0.98559000  0.42482000  0.23010000  1.0
  Ag  Ag1  1  0.01442000  0.57518000  0.76990000  1.0
  Ag  Ag2  1  0.00000000  0.50000000  0.00000000  1.0
  Ag  Ag3  1  0.00000000  0.50000000  0.50000000  1.0
  H  H4  1  0.03640000  0.18786000  0.11957000  1.0
  H  H5  1  0.96360000  0.81214000  0.88043000  1.0
  H  H6  1  0.30233000  0.45080000  0.99361000  1.0
  H  H7  1  0.69767000  0.54920000  0.00639000  1.0
  H  H8  1  0.47660000  0.41148000  0.05171000  1.0
  H  H9  1  0.52340000  0.58852000  0.94829000  1.0
  H  H10  1  0.39124000  0.48364000  0.13570000  1.0
  H  H11  1  0.60877000  0.51636000  0.86430000  1.0
  H  H12  1  0.08914000  0.77253000  0.14865000  1.0
  H  H13  1  0.91086000  0.22747000  0.85134000  1.0
  H  H14  1  0.72638000  0.53301000  0.19306000  1.0
  H  H15  1  0.27362000  0.46699000  0.80694000  1.0
  H  H16  1  0.60558000  0.62401000  0.20938000  1.0
  H  H17  1  0.39442000  0.37599000  0.79062000  1.0
  H  H18  1  0.74910000  0.60862000  0.32556000  1.0
  H  H19  1  0.25090000  0.39138000  0.67444000  1.0
  H  H20  1  0.05483000  0.77971000  0.50755000  1.0
  H  H21  1  0.94517000  0.22029000  0.49245000  1.0
  H  H22  1  0.30743000  0.54455000  0.34104000  1.0
  H  H23  1  0.69257000  0.45545000  0.65896000  1.0
  H  H24  1  0.46913000  0.64000000  0.36607000  1.0
  H  H25  1  0.53087000  0.36000000  0.63393000  1.0
  H  H26  1  0.30829000  0.61241000  0.24283000  1.0
  H  H27  1  0.69171000  0.38759000  0.75717000  1.0
  H  H28  1  0.82135000  0.18070000  0.20486000  1.0
  H  H29  1  0.17865000  0.81930000  0.79514000  1.0
  H  H30  1  0.67345000  0.44481000  0.45968000  1.0
  H  H31  1  0.32656000  0.55519000  0.54032000  1.0
  H  H32  1  0.47825000  0.38717000  0.39101000  1.0
  H  H33  1  0.52175000  0.61283000  0.60899000  1.0
  H  H34  1  0.57469000  0.45893000  0.33018000  1.0
  H  H35  1  0.42531000  0.54107000  0.66982000  1.0
  C  C36  1  0.17440000  0.31803000  0.09664000  1.0
  C  C37  1  0.82560000  0.68196000  0.90336000  1.0
  C  C38  1  0.12664000  0.21110000  0.09448000  1.0
  C  C39  1  0.87336000  0.78890000  0.90552000  1.0
  C  C40  1  0.21008000  0.14552000  0.05909000  1.0
  C  C41  1  0.78992000  0.85448000  0.94091000  1.0
  C  C42  1  0.37060000  0.42345000  0.05999000  1.0
  C  C43  1  0.62940000  0.57655000  0.94001000  1.0
  C  C44  1  0.92673000  0.67090000  0.18465000  1.0
  C  C45  1  0.07326000  0.32910000  0.81535000  1.0
  C  C46  1  0.00338000  0.76914000  0.18299000  1.0
  C  C47  1  0.99662000  0.23086000  0.81701000  1.0
  C  C48  1  0.95528000  0.85369000  0.22958000  1.0
  C  C49  1  0.04471000  0.14631000  0.77042000  1.0
  C  C50  1  0.71888000  0.60900000  0.24136000  1.0
  C  C51  1  0.28112000  0.39101000  0.75864000  1.0
  C  C52  1  0.16966000  0.67923000  0.41891000  1.0
  C  C53  1  0.83034000  0.32077000  0.58109000  1.0
  C  C54  1  0.13942000  0.77723000  0.47188000  1.0
  C  C55  1  0.86057000  0.22277000  0.52812000  1.0
  C  C56  1  0.22898000  0.86252000  0.47054000  1.0
  C  C57  1  0.77102000  0.13748000  0.52946000  1.0
  C  C58  1  0.34698000  0.61931000  0.32919000  1.0
  C  C59  1  0.65302000  0.38069000  0.67082000  1.0
  C  C60  1  0.73837000  0.30675000  0.29446000  1.0
  C  C61  1  0.26163000  0.69325000  0.70554000  1.0
  C  C62  1  0.73861000  0.20051000  0.23922000  1.0
  C  C63  1  0.26140000  0.79949000  0.76078000  1.0
  C  C64  1  0.62471000  0.13001000  0.23754000  1.0
  C  C65  1  0.37529000  0.86999000  0.76246000  1.0
  C  C66  1  0.58444000  0.40558000  0.38116000  1.0
  C  C67  1  0.41556000  0.59442000  0.61884000  1.0
  S  S68  1  0.34527000  0.20835000  0.02626000  1.0
  S  S69  1  0.65473000  0.79165000  0.97374000  1.0
  S  S70  1  0.81805000  0.81900000  0.27601000  1.0
  S  S71  1  0.18195000  0.18100000  0.72398000  1.0
  S  S72  1  0.35125000  0.82956000  0.40731000  1.0
  S  S73  1  0.64875000  0.17044000  0.59269000  1.0
  S  S74  1  0.51426000  0.18798000  0.30093000  1.0
  S  S75  1  0.48575000  0.81202000  0.69907000  1.0
  N  N76  1  0.29293000  0.32478000  0.06254000  1.0
  N  N77  1  0.70708000  0.67522000  0.93746000  1.0
  N  N78  1  0.82260000  0.69009000  0.23183000  1.0
  N  N79  1  0.17740000  0.30991000  0.76817000  1.0
  N  N80  1  0.28511000  0.69992000  0.38379000  1.0
  N  N81  1  0.71490000  0.30008000  0.61622000  1.0
  N  N82  1  0.61998000  0.30835000  0.32885000  1.0
  N  N83  1  0.38002000  0.69165000  0.67114000  1.0
  Cl  Cl84  1  0.20096000  0.01478000  0.04682000  1.0
  Cl  Cl85  1  0.79904000  0.98522000  0.95318000  1.0
  Cl  Cl86  1  0.01525000  0.98380000  0.24896000  1.0
  Cl  Cl87  1  0.98475000  0.01620000  0.75104000  1.0
  Cl  Cl88  1  0.23263000  0.99269000  0.52185000  1.0
  Cl  Cl89  1  0.76737000  0.00732000  0.47814000  1.0
  Cl  Cl90  1  0.58276000  0.99674000  0.18335000  1.0
  Cl  Cl91  1  0.41724000  0.00327000  0.81664000  1.0
  Cl  Cl92  1  0.31301000  0.70982000  0.03608000  1.0
  Cl  Cl93  1  0.68700000  0.29018000  0.96392000  1.0
  Cl  Cl94  1  0.20331000  0.29402000  0.41272000  1.0
  Cl  Cl95  1  0.79669000  0.70598000  0.58728000  1.0
  O  O96  1  0.12417000  0.39992000  0.12466000  1.0
  O  O97  1  0.87583000  0.60008000  0.87534000  1.0
  O  O98  1  0.94341000  0.57814000  0.14924000  1.0
  O  O99  1  0.05659000  0.42186000  0.85076000  1.0
  O  O100  1  0.10734000  0.58580000  0.40384000  1.0
  O  O101  1  0.89266000  0.41420000  0.59616000  1.0
  O  O102  1  0.82758000  0.39213000  0.31401000  1.0
  O  O103  1  0.17242000  0.60787000  0.68599000  1.0
  O  O104  1  0.22883000  0.65681000  0.08769000  1.0
  O  O105  1  0.77117000  0.34319000  0.91231000  1.0
  O  O106  1  0.30347000  0.63532000  0.93546000  1.0
  O  O107  1  0.69653000  0.36468000  0.06454000  1.0
  O  O108  1  0.46932000  0.74379000  0.10899000  1.0
  O  O109  1  0.53068000  0.25621000  0.89101000  1.0
  O  O110  1  0.24996000  0.80006000  0.01250000  1.0
  O  O111  1  0.75004000  0.19994000  0.98750000  1.0
  O  O112  1  0.15275000  0.34504000  0.49845000  1.0
  O  O113  1  0.84724000  0.65496000  0.50154000  1.0
  O  O114  1  0.23638000  0.37173000  0.35901000  1.0
  O  O115  1  0.76363000  0.62827000  0.64099000  1.0
  O  O116  1  0.33831000  0.25520000  0.46028000  1.0
  O  O117  1  0.66168000  0.74480000  0.53972000  1.0
  O  O118  1  0.08556000  0.20720000  0.33471000  1.0
  O  O119  1  0.91444000  0.79280000  0.66529000  1.0
