# generated using pymatgen
data_MnH12(C2N)10
_symmetry_space_group_name_H-M   'P 1'
_cell_length_a   7.35304000
_cell_length_b   11.14820000
_cell_length_c   11.14810000
_cell_angle_alpha   74.70030000
_cell_angle_beta   80.30760000
_cell_angle_gamma   80.30850000
_symmetry_Int_Tables_number   1
_chemical_formula_structural   MnH12(C2N)10
_chemical_formula_sum   'Mn2 H24 C40 N20'
_cell_volume   861.46395755
_cell_formula_units_Z   2
loop_
 _symmetry_equiv_pos_site_id
 _symmetry_equiv_pos_as_xyz
  1  'x, y, z'
loop_
 _atom_site_type_symbol
 _atom_site_label
 _atom_site_symmetry_multiplicity
 _atom_site_fract_x
 _atom_site_fract_y
 _atom_site_fract_z
 _atom_site_occupancy
  Mn  Mn0  1  0.24999000  0.58280000  0.41720000  1.0
  Mn  Mn1  1  0.74999000  0.41717000  0.58283000  1.0
  H  H2  1  0.10477000  0.54666000  0.99597000  1.0
  H  H3  1  0.39523000  0.00403000  0.45334000  1.0
  H  H4  1  0.89521000  0.45336000  0.00402000  1.0
  H  H5  1  0.60480000  0.99597000  0.54664000  1.0
  H  H6  1  0.35437000  0.64915000  0.84438000  1.0
  H  H7  1  0.14565000  0.15563000  0.35085000  1.0
  H  H8  1  0.64563000  0.35085000  0.15564000  1.0
  H  H9  1  0.85438000  0.84437000  0.64915000  1.0
  H  H10  1  0.63217000  0.66666667  0.27219000  1.0
  H  H11  1  0.86784000  0.72781000  0.33333333  1.0
  H  H12  1  0.36783000  0.33333333  0.72782000  1.0
  H  H13  1  0.13218000  0.27219000  0.66666667  1.0
  H  H14  1  0.89975000  0.75290000  0.12429000  1.0
  H  H15  1  0.60026000  0.87570000  0.24710000  1.0
  H  H16  1  0.10023000  0.24710000  0.87570000  1.0
  H  H17  1  0.39978000  0.12432000  0.75287000  1.0
  H  H18  1  0.90718000  0.79064000  0.89608000  1.0
  H  H19  1  0.59283000  0.10391000  0.20936000  1.0
  H  H20  1  0.09283000  0.20934000  0.10391000  1.0
  H  H21  1  0.40718000  0.89611000  0.79063000  1.0
  H  H22  1  0.64688000  0.73536000  0.81064000  1.0
  H  H23  1  0.85311000  0.18937000  0.26463000  1.0
  H  H24  1  0.35309000  0.26462000  0.18938000  1.0
  H  H25  1  0.14690000  0.81064000  0.73537000  1.0
  C  C26  1  0.06683000  0.50984000  0.24406000  1.0
  C  C27  1  0.43316000  0.75594000  0.49016000  1.0
  C  C28  1  0.93317000  0.49014000  0.75596000  1.0
  C  C29  1  0.56682000  0.24404000  0.50986000  1.0
  C  C30  1  0.21010000  0.56955000  0.15759000  1.0
  C  C31  1  0.28989000  0.84241000  0.43044000  1.0
  C  C32  1  0.78990000  0.43042000  0.84241000  1.0
  C  C33  1  0.71010000  0.15759000  0.56957000  1.0
  C  C34  1  0.21200000  0.58180000  0.02802000  1.0
  C  C35  1  0.28801000  0.97198000  0.41821000  1.0
  C  C36  1  0.78798000  0.41821000  0.97198000  1.0
  C  C37  1  0.71202000  0.02803000  0.58179000  1.0
  C  C38  1  0.34885000  0.63849000  0.94495000  1.0
  C  C39  1  0.15115000  0.05505000  0.36151000  1.0
  C  C40  1  0.65113000  0.36150000  0.05505000  1.0
  C  C41  1  0.84888000  0.94496000  0.63848000  1.0
  C  C42  1  0.48965000  0.67750000  0.99242000  1.0
  C  C43  1  0.01035000  0.00759000  0.32250000  1.0
  C  C44  1  0.51034000  0.32248000  0.00759000  1.0
  C  C45  1  0.98966000  0.99244000  0.67749000  1.0
  C  C46  1  0.48145000  0.65955000  0.12609000  1.0
  C  C47  1  0.01854000  0.87391000  0.34045000  1.0
  C  C48  1  0.51856000  0.34044000  0.87391000  1.0
  C  C49  1  0.98144000  0.12611000  0.65954000  1.0
  C  C50  1  0.63360000  0.68674000  0.17105000  1.0
  C  C51  1  0.86640000  0.82895000  0.31327000  1.0
  C  C52  1  0.36641000  0.31327000  0.82896000  1.0
  C  C53  1  0.13360000  0.17105000  0.68671000  1.0
  C  C54  1  0.78254000  0.73306000  0.08837000  1.0
  C  C55  1  0.71747000  0.91162000  0.26694000  1.0
  C  C56  1  0.21745000  0.26694000  0.91161000  1.0
  C  C57  1  0.28255000  0.08840000  0.73303000  1.0
  C  C58  1  0.78715000  0.75495000  0.95799000  1.0
  C  C59  1  0.71286000  0.04200000  0.24505000  1.0
  C  C60  1  0.21284000  0.24504000  0.04200000  1.0
  C  C61  1  0.28716000  0.95802000  0.75494000  1.0
  C  C62  1  0.64272000  0.72644000  0.91083000  1.0
  C  C63  1  0.85728000  0.08918000  0.27356000  1.0
  C  C64  1  0.35725000  0.27355000  0.08918000  1.0
  C  C65  1  0.14275000  0.91084000  0.72644000  1.0
  N  N66  1  0.03871000  0.51598000  0.36508000  1.0
  N  N67  1  0.46129000  0.63492000  0.48402000  1.0
  N  N68  1  0.96133000  0.48402000  0.63493000  1.0
  N  N69  1  0.53867000  0.36508000  0.51598000  1.0
  N  N70  1  0.89380000  0.44685000  0.41579000  1.0
  N  N71  1  0.60620000  0.58422000  0.55315000  1.0
  N  N72  1  0.10620000  0.55313000  0.58422000  1.0
  N  N73  1  0.39380000  0.41579000  0.44687000  1.0
  N  N74  1  0.84537000  0.40232000  0.32681000  1.0
  N  N75  1  0.65464000  0.67320000  0.59767000  1.0
  N  N76  1  0.15463000  0.59767000  0.67322000  1.0
  N  N77  1  0.34537000  0.32680000  0.40233000  1.0
  N  N78  1  0.95089000  0.44056000  0.21973000  1.0
  N  N79  1  0.54910000  0.78027000  0.55944000  1.0
  N  N80  1  0.04908000  0.55944000  0.78028000  1.0
  N  N81  1  0.45090000  0.21973000  0.44056000  1.0
  N  N82  1  0.33422000  0.61050000  0.20879000  1.0
  N  N83  1  0.16577000  0.79121000  0.38950000  1.0
  N  N84  1  0.66577000  0.38949000  0.79121000  1.0
  N  N85  1  0.83423000  0.20879000  0.61050000  1.0
