# generated using pymatgen
data_NiH18C18(NO)4
_symmetry_space_group_name_H-M   'P 1'
_cell_length_a   8.78837000
_cell_length_b   8.78853000
_cell_length_c   13.59283005
_cell_angle_alpha   72.42594281
_cell_angle_beta   87.30117254
_cell_angle_gamma   117.39820000
_symmetry_Int_Tables_number   1
_chemical_formula_structural   NiH18C18(NO)4
_chemical_formula_sum   'Ni2 H36 C36 N8 O8'
_cell_volume   866.87104123
_cell_formula_units_Z   2
loop_
 _symmetry_equiv_pos_site_id
 _symmetry_equiv_pos_as_xyz
  1  'x, y, z'
loop_
 _atom_site_type_symbol
 _atom_site_label
 _atom_site_symmetry_multiplicity
 _atom_site_fract_x
 _atom_site_fract_y
 _atom_site_fract_z
 _atom_site_occupancy
  Ni  Ni0  1  0.49999000  0.49998000  0.00000000  1.0
  Ni  Ni1  1  0.49999000  0.00000000  0.50000000  1.0
  H  H2  1  0.02407000  0.95541000  0.07036000  1.0
  H  H3  1  0.02581000  0.59445000  0.42964000  1.0
  H  H4  1  0.97593000  0.04455000  0.92965000  1.0
  H  H5  1  0.97422000  0.40556000  0.57037000  1.0
  H  H6  1  0.78251000  0.63262000  0.16212000  1.0
  H  H7  1  0.79475000  0.44462000  0.33790000  1.0
  H  H8  1  0.21748000  0.36735000  0.83790000  1.0
  H  H9  1  0.20526000  0.55537000  0.66212000  1.0
  H  H10  1  0.46283000  0.13244000  0.97396000  1.0
  H  H11  1  0.10638000  0.93673000  0.52604000  1.0
  H  H12  1  0.53719000  0.86756000  0.02603000  1.0
  H  H13  1  0.89359000  0.06322000  0.47397000  1.0
  H  H14  1  0.59521000  0.65521000  0.75170000  1.0
  H  H15  1  0.40693000  0.84695000  0.74831000  1.0
  H  H16  1  0.40476000  0.34479000  0.24830000  1.0
  H  H17  1  0.59309000  0.15307000  0.25170000  1.0
  H  H18  1  0.53119000  0.13843000  0.77157000  1.0
  H  H19  1  0.90998000  0.80273000  0.72842000  1.0
  H  H20  1  0.46883000  0.86159000  0.22841000  1.0
  H  H21  1  0.09000000  0.19724000  0.27158000  1.0
  H  H22  1  0.69278000  0.41867000  0.59240000  1.0
  H  H23  1  0.01105000  0.78519000  0.90759000  1.0
  H  H24  1  0.30721000  0.58135000  0.40758000  1.0
  H  H25  1  0.98895000  0.21483000  0.09241000  1.0
  H  H26  1  0.71875000  0.63477000  0.58819000  1.0
  H  H27  1  0.22292000  0.80697000  0.91181000  1.0
  H  H28  1  0.28125000  0.36526000  0.41180000  1.0
  H  H29  1  0.77708000  0.19306000  0.08819000  1.0
  H  H30  1  0.39723000  0.51289000  0.58841000  1.0
  H  H31  1  0.10134000  0.48568000  0.91160000  1.0
  H  H32  1  0.60277000  0.48713000  0.41158000  1.0
  H  H33  1  0.89869000  0.51435000  0.08841000  1.0
  H  H34  1  0.37923000  0.30614000  0.58357000  1.0
  H  H35  1  0.88974000  0.46281000  0.91642000  1.0
  H  H36  1  0.62076000  0.69389000  0.41641000  1.0
  H  H37  1  0.11029000  0.53720000  0.08360000  1.0
  C  C38  1  0.31769000  0.14044000  0.13641000  1.0
  C  C39  1  0.27685000  0.95410000  0.36359000  1.0
  C  C40  1  0.68231000  0.85955000  0.86359000  1.0
  C  C41  1  0.72316000  0.04591000  0.63641000  1.0
  C  C42  1  0.15864000  0.95716000  0.19804000  1.0
  C  C43  1  0.15521000  0.85668000  0.30196000  1.0
  C  C44  1  0.84136000  0.04284000  0.80196000  1.0
  C  C45  1  0.84480000  0.14332000  0.69804000  1.0
  C  C46  1  0.02259000  0.87565000  0.14960000  1.0
  C  C47  1  0.02526000  0.67219000  0.35040000  1.0
  C  C48  1  0.97740000  0.12433000  0.85041000  1.0
  C  C49  1  0.97476000  0.32781000  0.64960000  1.0
  C  C50  1  0.88884000  0.69334000  0.20060000  1.0
  C  C51  1  0.89394000  0.58943000  0.29941000  1.0
  C  C52  1  0.11115000  0.30663000  0.79942000  1.0
  C  C53  1  0.10606000  0.41056000  0.70060000  1.0
  C  C54  1  0.49622000  0.24040000  0.89835000  1.0
  C  C55  1  0.13873000  0.89454000  0.60165000  1.0
  C  C56  1  0.50378000  0.75960000  0.10164000  1.0
  C  C57  1  0.86125000  0.10542000  0.39836000  1.0
  C  C58  1  0.56582000  0.51365000  0.78728000  1.0
  C  C59  1  0.30094000  0.85311000  0.71271000  1.0
  C  C60  1  0.43417000  0.48635000  0.21271000  1.0
  C  C61  1  0.69906000  0.14689000  0.28729000  1.0
  C  C62  1  0.53029000  0.24243000  0.79816000  1.0
  C  C63  1  0.04058000  0.82844000  0.70184000  1.0
  C  C64  1  0.46971000  0.75757000  0.20183000  1.0
  C  C65  1  0.95940000  0.17152000  0.29817000  1.0
  C  C66  1  0.62539000  0.48678000  0.61335000  1.0
  C  C67  1  0.10011000  0.73875000  0.88664000  1.0
  C  C68  1  0.37460000  0.51324000  0.38664000  1.0
  C  C69  1  0.89989000  0.26126000  0.11336000  1.0
  C  C70  1  0.46976000  0.45510000  0.56019000  1.0
  C  C71  1  0.01531000  0.52999000  0.93980000  1.0
  C  C72  1  0.53023000  0.54493000  0.43979000  1.0
  C  C73  1  0.98472000  0.47004000  0.06021000  1.0
  N  N74  1  0.51971000  0.41141000  0.89060000  1.0
  N  N75  1  0.30200000  0.91030000  0.60940000  1.0
  N  N76  1  0.48029000  0.58859000  0.10939000  1.0
  N  N77  1  0.69799000  0.08969000  0.39060000  1.0
  N  N78  1  0.57453000  0.41572000  0.72926000  1.0
  N  N79  1  0.14499000  0.80379000  0.77074000  1.0
  N  N80  1  0.42546000  0.58428000  0.27074000  1.0
  N  N81  1  0.85502000  0.19621000  0.22926000  1.0
  O  O82  1  0.29016000  0.26903000  0.07835000  1.0
  O  O83  1  0.34740000  0.86852000  0.42165000  1.0
  O  O84  1  0.70983000  0.73095000  0.92165000  1.0
  O  O85  1  0.65260000  0.13148000  0.57836000  1.0
  O  O86  1  0.46645000  0.15755000  0.14085000  1.0
  O  O87  1  0.29840000  0.10730000  0.35914000  1.0
  O  O88  1  0.53355000  0.84244000  0.85915000  1.0
  O  O89  1  0.70160000  0.89270000  0.64086000  1.0
