# generated using pymatgen
data_H8PbC10(NCl)2
_symmetry_space_group_name_H-M   'P 1'
_cell_length_a   8.21992000
_cell_length_b   9.42360000
_cell_length_c   14.95610000
_cell_angle_alpha   90.00000000
_cell_angle_beta   91.00090000
_cell_angle_gamma   89.99990000
_symmetry_Int_Tables_number   1
_chemical_formula_structural   H8PbC10(NCl)2
_chemical_formula_sum   'H32 Pb4 C40 N8 Cl8'
_cell_volume   1158.34125768
_cell_formula_units_Z   4
loop_
 _symmetry_equiv_pos_site_id
 _symmetry_equiv_pos_as_xyz
  1  'x, y, z'
loop_
 _atom_site_type_symbol
 _atom_site_label
 _atom_site_symmetry_multiplicity
 _atom_site_fract_x
 _atom_site_fract_y
 _atom_site_fract_z
 _atom_site_occupancy
  H  H0  1  0.83585000  0.95992000  0.92656000  1.0
  H  H1  1  0.66416000  0.45992000  0.07344000  1.0
  H  H2  1  0.16416000  0.04008000  0.07343000  1.0
  H  H3  1  0.33584000  0.54008000  0.92657000  1.0
  H  H4  1  0.91725000  0.19672000  0.99312000  1.0
  H  H5  1  0.58275000  0.69671000  0.00688000  1.0
  H  H6  1  0.08275000  0.80328000  0.00688000  1.0
  H  H7  1  0.41725000  0.30329000  0.99312000  1.0
  H  H8  1  0.82604000  0.41847000  0.91292000  1.0
  H  H9  1  0.67396000  0.91846000  0.08708000  1.0
  H  H10  1  0.17396000  0.58153000  0.08709000  1.0
  H  H11  1  0.32605000  0.08154000  0.91292000  1.0
  H  H12  1  0.65330000  0.39691000  0.77650000  1.0
  H  H13  1  0.84670000  0.89691000  0.22350000  1.0
  H  H14  1  0.34670000  0.60309000  0.22350000  1.0
  H  H15  1  0.15330000  0.10309000  0.77650000  1.0
  H  H16  1  0.36876000  0.87964000  0.59489000  1.0
  H  H17  1  0.13124000  0.37964000  0.40511000  1.0
  H  H18  1  0.63123000  0.12036000  0.40512000  1.0
  H  H19  1  0.86877000  0.62036000  0.59488000  1.0
  H  H20  1  0.25927000  0.07753000  0.49688000  1.0
  H  H21  1  0.24073000  0.57753000  0.50312000  1.0
  H  H22  1  0.74073000  0.92247000  0.50312000  1.0
  H  H23  1  0.75926000  0.42247000  0.49688000  1.0
  H  H24  1  0.35479000  0.32649000  0.53007000  1.0
  H  H25  1  0.14520000  0.82648000  0.46993000  1.0
  H  H26  1  0.64521000  0.67351000  0.46994000  1.0
  H  H27  1  0.85479000  0.17351000  0.53007000  1.0
  H  H28  1  0.53375000  0.37001000  0.65995000  1.0
  H  H29  1  0.96625000  0.87001000  0.34004000  1.0
  H  H30  1  0.46625000  0.62999000  0.34005000  1.0
  H  H31  1  0.03375000  0.12999000  0.65996000  1.0
  Pb  Pb32  1  0.64546000  0.80566000  0.75564000  1.0
  Pb  Pb33  1  0.85455000  0.30566000  0.24435000  1.0
  Pb  Pb34  1  0.35454000  0.19433000  0.24436000  1.0
  Pb  Pb35  1  0.14545000  0.69434000  0.75564000  1.0
  C  C36  1  0.79803000  0.06011000  0.89586000  1.0
  C  C37  1  0.70198000  0.56011000  0.10414000  1.0
  C  C38  1  0.20198000  0.93989000  0.10414000  1.0
  C  C39  1  0.29802000  0.43990000  0.89586000  1.0
  C  C40  1  0.84292000  0.19066000  0.93217000  1.0
  C  C41  1  0.65708000  0.69066000  0.06783000  1.0
  C  C42  1  0.15708000  0.80933000  0.06783000  1.0
  C  C43  1  0.34292000  0.30933000  0.93217000  1.0
  C  C44  1  0.79154000  0.31360000  0.88812000  1.0
  C  C45  1  0.70846000  0.81359000  0.11188000  1.0
  C  C46  1  0.20846000  0.68640000  0.11188000  1.0
  C  C47  1  0.29155000  0.18641000  0.88812000  1.0
  C  C48  1  0.69608000  0.30165000  0.81073000  1.0
  C  C49  1  0.80392000  0.80165000  0.18927000  1.0
  C  C50  1  0.30392000  0.69835000  0.18928000  1.0
  C  C51  1  0.19608000  0.19835000  0.81073000  1.0
  C  C52  1  0.65468000  0.16671000  0.77797000  1.0
  C  C53  1  0.84532000  0.66666667  0.22203000  1.0
  C  C54  1  0.34532000  0.83329000  0.22203000  1.0
  C  C55  1  0.15467000  0.33333333  0.77797000  1.0
  C  C56  1  0.40116000  0.99043000  0.60720000  1.0
  C  C57  1  0.09884000  0.49042000  0.39279000  1.0
  C  C58  1  0.59884000  0.00958000  0.39280000  1.0
  C  C59  1  0.90116000  0.50957000  0.60721000  1.0
  C  C60  1  0.34226000  0.09963000  0.55290000  1.0
  C  C61  1  0.15774000  0.59963000  0.44710000  1.0
  C  C62  1  0.65774000  0.90037000  0.44710000  1.0
  C  C63  1  0.84226000  0.40037000  0.55290000  1.0
  C  C64  1  0.39369000  0.23750000  0.57174000  1.0
  C  C65  1  0.10631000  0.73750000  0.42826000  1.0
  C  C66  1  0.60630000  0.76250000  0.42826000  1.0
  C  C67  1  0.89369000  0.26250000  0.57174000  1.0
  C  C68  1  0.49713000  0.26160000  0.64480000  1.0
  C  C69  1  0.00287000  0.76159000  0.35520000  1.0
  C  C70  1  0.50287000  0.73841000  0.35520000  1.0
  C  C71  1  0.99713000  0.23841000  0.64480000  1.0
  C  C72  1  0.54961000  0.14693000  0.69741000  1.0
  C  C73  1  0.95039000  0.64694000  0.30259000  1.0
  C  C74  1  0.45039000  0.85306000  0.30259000  1.0
  C  C75  1  0.04961000  0.35307000  0.69741000  1.0
  N  N76  1  0.70729000  0.04858000  0.82079000  1.0
  N  N77  1  0.79272000  0.54858000  0.17921000  1.0
  N  N78  1  0.29272000  0.95142000  0.17921000  1.0
  N  N79  1  0.20728000  0.45142000  0.82079000  1.0
  N  N80  1  0.50289000  0.01301000  0.67692000  1.0
  N  N81  1  0.99711000  0.51301000  0.32308000  1.0
  N  N82  1  0.49710000  0.98699000  0.32308000  1.0
  N  N83  1  0.00289000  0.48699000  0.67692000  1.0
  Cl  Cl84  1  0.39778000  0.81216000  0.88366000  1.0
  Cl  Cl85  1  0.10222000  0.31215000  0.11633000  1.0
  Cl  Cl86  1  0.60223000  0.18785000  0.11634000  1.0
  Cl  Cl87  1  0.89778000  0.68785000  0.88366000  1.0
  Cl  Cl88  1  0.92395000  0.87605000  0.64132000  1.0
  Cl  Cl89  1  0.57606000  0.37605000  0.35869000  1.0
  Cl  Cl90  1  0.07606000  0.12395000  0.35869000  1.0
  Cl  Cl91  1  0.42395000  0.62395000  0.64131000  1.0
