# generated using pymatgen
data_CdH24(C18N7)2
_symmetry_space_group_name_H-M   'P 1'
_cell_length_a   8.14924000
_cell_length_b   13.05440000
_cell_length_c   16.33098785
_cell_angle_alpha   85.88338320
_cell_angle_beta   75.55928242
_cell_angle_gamma   71.83330000
_symmetry_Int_Tables_number   1
_chemical_formula_structural   CdH24(C18N7)2
_chemical_formula_sum   'Cd2 H48 C72 N28'
_cell_volume   1598.55889880
_cell_formula_units_Z   2
loop_
 _symmetry_equiv_pos_site_id
 _symmetry_equiv_pos_as_xyz
  1  'x, y, z'
loop_
 _atom_site_type_symbol
 _atom_site_label
 _atom_site_symmetry_multiplicity
 _atom_site_fract_x
 _atom_site_fract_y
 _atom_site_fract_z
 _atom_site_occupancy
  Cd  Cd0  1  0.50000000  0.50000000  0.50000000  1.0
  Cd  Cd1  1  0.00000000  0.00000000  0.00000000  1.0
  H  H2  1  0.33773000  0.78487000  0.46343000  1.0
  H  H3  1  0.08627000  0.71537000  0.03665000  1.0
  H  H4  1  0.66227000  0.21513000  0.53657000  1.0
  H  H5  1  0.91374000  0.28463000  0.96335000  1.0
  H  H6  1  0.61132000  0.84454000  0.63444000  1.0
  H  H7  1  0.59018000  0.65554000  0.86546000  1.0
  H  H8  1  0.38868000  0.15546000  0.36556000  1.0
  H  H9  1  0.40982000  0.34446000  0.13454000  1.0
  H  H10  1  0.72352000  0.62528000  0.59920000  1.0
  H  H11  1  0.44837000  0.87483000  0.90063000  1.0
  H  H12  1  0.27648000  0.37472000  0.40080000  1.0
  H  H13  1  0.55163000  0.12517000  0.09937000  1.0
  H  H14  1  0.15958000  0.17035000  0.68965000  1.0
  H  H15  1  0.51905000  0.32975000  0.81045000  1.0
  H  H16  1  0.84042000  0.82965000  0.31035000  1.0
  H  H17  1  0.48095000  0.67025000  0.18955000  1.0
  H  H18  1  0.37334000  0.98800000  0.67351000  1.0
  H  H19  1  0.53432000  0.51215000  0.82649000  1.0
  H  H20  1  0.62666000  0.01200000  0.32649000  1.0
  H  H21  1  0.46568000  0.48785000  0.17351000  1.0
  H  H22  1  0.93083000  0.31785000  0.46187000  1.0
  H  H23  1  0.21059000  0.18205000  0.03825000  1.0
  H  H24  1  0.06917000  0.68215000  0.53813000  1.0
  H  H25  1  0.78941000  0.81795000  0.96175000  1.0
  H  H26  1  0.60242000  0.44921000  0.69711000  1.0
  H  H27  1  0.24828000  0.05079000  0.80300000  1.0
  H  H28  1  0.39758000  0.55078000  0.30289000  1.0
  H  H29  1  0.75171000  0.94922000  0.19700000  1.0
  H  H30  1  0.86594000  0.26450000  0.72494000  1.0
  H  H31  1  0.35504000  0.23554000  0.77517000  1.0
  H  H32  1  0.13406000  0.73550000  0.27506000  1.0
  H  H33  1  0.64495000  0.76446000  0.22483000  1.0
  H  H34  1  0.33167000  0.88497000  0.25876000  1.0
  H  H35  1  0.97510000  0.61518000  0.24142000  1.0
  H  H36  1  0.66833000  0.11503000  0.74124000  1.0
  H  H37  1  0.02490000  0.38482000  0.75858000  1.0
  H  H38  1  0.26901000  0.87723000  0.11633000  1.0
  H  H39  1  0.76226000  0.62281000  0.38381000  1.0
  H  H40  1  0.73100000  0.12277000  0.88367000  1.0
  H  H41  1  0.23775000  0.37719000  0.61619000  1.0
  H  H42  1  0.84726000  0.15875000  0.16554000  1.0
  H  H43  1  0.67145000  0.34114000  0.33451000  1.0
  H  H44  1  0.15274000  0.84125000  0.83446000  1.0
  H  H45  1  0.32854000  0.65886000  0.66549000  1.0
  H  H46  1  0.89556000  0.17775000  0.30908000  1.0
  H  H47  1  0.88232000  0.32222000  0.19098000  1.0
  H  H48  1  0.10444000  0.82225000  0.69092000  1.0
  H  H49  1  0.11767000  0.67778000  0.80902000  1.0
  C  C50  1  0.42746000  0.76706000  0.50511000  1.0
  C  C51  1  0.19978000  0.73316000  0.99487000  1.0
  C  C52  1  0.57254000  0.23294000  0.49489000  1.0
  C  C53  1  0.80023000  0.26684000  0.00513000  1.0
  C  C54  1  0.56882000  0.79840000  0.59597000  1.0
  C  C55  1  0.46315000  0.70173000  0.90391000  1.0
  C  C56  1  0.43118000  0.20160000  0.40403000  1.0
  C  C57  1  0.53685000  0.29827000  0.09609000  1.0
  C  C58  1  0.62439000  0.69032000  0.57721000  1.0
  C  C59  1  0.39223000  0.80980000  0.92272000  1.0
  C  C60  1  0.37561000  0.30968000  0.42279000  1.0
  C  C61  1  0.60777000  0.19019000  0.07728000  1.0
  C  C62  1  0.33585000  0.95604000  0.55336000  1.0
  C  C63  1  0.34487000  0.54417000  0.94664000  1.0
  C  C64  1  0.66415000  0.04396000  0.44664000  1.0
  C  C65  1  0.65513000  0.45583000  0.05336000  1.0
  C  C66  1  0.25065000  0.00096000  0.48804000  1.0
  C  C67  1  0.23934000  0.49923000  0.01202000  1.0
  C  C68  1  0.74934000  0.99904000  0.51197000  1.0
  C  C69  1  0.76066000  0.50077000  0.98798000  1.0
  C  C70  1  0.12290000  0.10705000  0.49808000  1.0
  C  C71  1  0.22765000  0.39314000  0.00199000  1.0
  C  C72  1  0.87710000  0.89295000  0.50192000  1.0
  C  C73  1  0.77235000  0.60686000  0.99801000  1.0
  C  C74  1  0.08599000  0.16699000  0.57251000  1.0
  C  C75  1  0.32504000  0.33314000  0.92758000  1.0
  C  C76  1  0.91402000  0.83301000  0.42749000  1.0
  C  C77  1  0.67496000  0.66686000  0.07242000  1.0
  C  C78  1  0.18252000  0.12402000  0.63282000  1.0
  C  C79  1  0.43880000  0.37614000  0.86723000  1.0
  C  C80  1  0.81748000  0.87598000  0.36718000  1.0
  C  C81  1  0.56120000  0.62386000  0.13277000  1.0
  C  C82  1  0.30455000  0.01980000  0.62370000  1.0
  C  C83  1  0.44752000  0.48039000  0.87631000  1.0
  C  C84  1  0.69545000  0.98020000  0.37631000  1.0
  C  C85  1  0.55249000  0.51961000  0.12368000  1.0
  C  C86  1  0.87733000  0.33349000  0.52906000  1.0
  C  C87  1  0.23965000  0.16651000  0.97105000  1.0
  C  C88  1  0.12268000  0.66650000  0.47094000  1.0
  C  C89  1  0.76035000  0.83349000  0.02895000  1.0
  C  C90  1  0.71185000  0.39616000  0.65227000  1.0
  C  C91  1  0.25991000  0.10386000  0.84783000  1.0
  C  C92  1  0.28816000  0.60384000  0.34773000  1.0
  C  C93  1  0.74008000  0.89615000  0.15217000  1.0
  C  C94  1  0.84145000  0.30561000  0.66721000  1.0
  C  C95  1  0.31398000  0.19440000  0.83290000  1.0
  C  C96  1  0.15855000  0.69439000  0.33279000  1.0
  C  C97  1  0.68602000  0.80560000  0.16710000  1.0
  C  C98  1  0.14710000  0.04145000  0.37826000  1.0
  C  C99  1  0.06648000  0.45873000  0.12180000  1.0
  C  C100  1  0.85290000  0.95855000  0.62174000  1.0
  C  C101  1  0.93352000  0.54127000  0.87820000  1.0
  C  C102  1  0.11805000  0.03287000  0.29511000  1.0
  C  C103  1  0.94576000  0.46724000  0.20497000  1.0
  C  C104  1  0.88195000  0.96713000  0.70489000  1.0
  C  C105  1  0.05425000  0.53276000  0.79502000  1.0
  C  C106  1  0.22377000  0.94694000  0.23957000  1.0
  C  C107  1  0.90998000  0.55317000  0.26055000  1.0
  C  C108  1  0.77622000  0.05306000  0.76044000  1.0
  C  C109  1  0.09002000  0.44683000  0.73945000  1.0
  C  C110  1  0.18921000  0.94263000  0.16107000  1.0
  C  C111  1  0.79271000  0.55738000  0.33905000  1.0
  C  C112  1  0.81080000  0.05736000  0.83893000  1.0
  C  C113  1  0.20729000  0.44262000  0.66095000  1.0
  C  C114  1  0.95462000  0.10012000  0.18813000  1.0
  C  C115  1  0.74275000  0.39983000  0.31195000  1.0
  C  C116  1  0.04538000  0.89988000  0.81188000  1.0
  C  C117  1  0.25725000  0.60018000  0.68805000  1.0
  C  C118  1  0.98055000  0.11072000  0.26736000  1.0
  C  C119  1  0.85842000  0.38930000  0.23271000  1.0
  C  C120  1  0.01945000  0.88928000  0.73264000  1.0
  C  C121  1  0.14158000  0.61070000  0.76729000  1.0
  N  N122  1  0.53463000  0.67154000  0.52079000  1.0
  N  N123  1  0.22730000  0.82864000  0.97912000  1.0
  N  N124  1  0.46537000  0.32846000  0.47921000  1.0
  N  N125  1  0.77271000  0.17136000  0.02088000  1.0
  N  N126  1  0.44347000  0.84674000  0.54969000  1.0
  N  N127  1  0.33980000  0.65343000  0.95023000  1.0
  N  N128  1  0.55652000  0.15326000  0.45031000  1.0
  N  N129  1  0.66020000  0.34656000  0.04977000  1.0
  N  N130  1  0.94628000  0.26594000  0.58827000  1.0
  N  N131  1  0.30021000  0.23410000  0.91184000  1.0
  N  N132  1  0.05372000  0.73405000  0.41173000  1.0
  N  N133  1  0.69979000  0.76590000  0.08816000  1.0
  N  N134  1  0.73509000  0.41280000  0.56613000  1.0
  N  N135  1  0.21365000  0.08724000  0.93397000  1.0
  N  N136  1  0.26491000  0.58720000  0.43387000  1.0
  N  N137  1  0.78635000  0.91276000  0.06603000  1.0
  N  N138  1  0.26456000  0.96074000  0.41090000  1.0
  N  N139  1  0.13591000  0.53946000  0.08915000  1.0
  N  N140  1  0.73544000  0.03926000  0.58910000  1.0
  N  N141  1  0.86409000  0.46054000  0.91085000  1.0
  N  N142  1  0.05721000  0.13105000  0.42764000  1.0
  N  N143  1  0.11550000  0.36914000  0.07242000  1.0
  N  N144  1  0.94279000  0.86895000  0.57236000  1.0
  N  N145  1  0.88449000  0.63086000  0.92758000  1.0
  N  N146  1  0.05643000  0.01765000  0.13488000  1.0
  N  N147  1  0.70880000  0.48232000  0.36519000  1.0
  N  N148  1  0.94358000  0.98235000  0.86511000  1.0
  N  N149  1  0.29120000  0.51768000  0.63481000  1.0
