# generated using pymatgen
data_SnH10(C5O2)2
_symmetry_space_group_name_H-M   'P 1'
_cell_length_a   7.44618000
_cell_length_b   9.81046000
_cell_length_c   14.38510000
_cell_angle_alpha   89.99850000
_cell_angle_beta   89.99960000
_cell_angle_gamma   87.17170000
_symmetry_Int_Tables_number   1
_chemical_formula_structural   SnH10(C5O2)2
_chemical_formula_sum   'Sn4 H40 C40 O16'
_cell_volume   1049.55800368
_cell_formula_units_Z   4
loop_
 _symmetry_equiv_pos_site_id
 _symmetry_equiv_pos_as_xyz
  1  'x, y, z'
loop_
 _atom_site_type_symbol
 _atom_site_label
 _atom_site_symmetry_multiplicity
 _atom_site_fract_x
 _atom_site_fract_y
 _atom_site_fract_z
 _atom_site_occupancy
  Sn  Sn0  1  0.59327000  0.84123000  0.39990000  1.0
  Sn  Sn1  1  0.90675000  0.15878000  0.89989000  1.0
  Sn  Sn2  1  0.40673000  0.15880000  0.60011000  1.0
  Sn  Sn3  1  0.09325000  0.84122000  0.10010000  1.0
  H  H4  1  0.25730000  0.83333000  0.46635000  1.0
  H  H5  1  0.24268000  0.16666000  0.96636000  1.0
  H  H6  1  0.74268000  0.16666000  0.53365000  1.0
  H  H7  1  0.75729000  0.83335000  0.03366000  1.0
  H  H8  1  0.35912000  0.66346000  0.45884000  1.0
  H  H9  1  0.14089000  0.33653000  0.95885000  1.0
  H  H10  1  0.64093000  0.33655000  0.54115000  1.0
  H  H11  1  0.85906000  0.66347000  0.04116000  1.0
  H  H12  1  0.27620000  0.74944000  0.35507000  1.0
  H  H13  1  0.22382000  0.25056000  0.85507000  1.0
  H  H14  1  0.72382000  0.25056000  0.64493000  1.0
  H  H15  1  0.77618000  0.74944000  0.14494000  1.0
  H  H16  1  0.84030000  0.00848000  0.46252000  1.0
  H  H17  1  0.65970000  0.99152000  0.96252000  1.0
  H  H18  1  0.15971000  0.99154000  0.53747000  1.0
  H  H19  1  0.34028000  0.00849000  0.03748000  1.0
  H  H20  1  0.93774000  0.89332000  0.37684000  1.0
  H  H21  1  0.56226000  0.10668000  0.87683000  1.0
  H  H22  1  0.06225000  0.10669000  0.62316000  1.0
  H  H23  1  0.43773000  0.89331000  0.12316000  1.0
  H  H24  1  0.90166000  0.83532000  0.49415000  1.0
  H  H25  1  0.59834000  0.16467000  0.99415000  1.0
  H  H26  1  0.09832000  0.16469000  0.50585000  1.0
  H  H27  1  0.40166000  0.83534000  0.00584000  1.0
  H  H28  1  0.73315000  0.52922000  0.16523000  1.0
  H  H29  1  0.76688000  0.47079000  0.66519000  1.0
  H  H30  1  0.26687000  0.47079000  0.83479000  1.0
  H  H31  1  0.23313000  0.52920000  0.33481000  1.0
  H  H32  1  0.84280000  0.31502000  0.08903000  1.0
  H  H33  1  0.65721000  0.68498000  0.58901000  1.0
  H  H34  1  0.15720000  0.68499000  0.91098000  1.0
  H  H35  1  0.34279000  0.31499000  0.41098000  1.0
  H  H36  1  0.99248000  0.14508000  0.35555000  1.0
  H  H37  1  0.50754000  0.85490000  0.85554000  1.0
  H  H38  1  0.00752000  0.85492000  0.64446000  1.0
  H  H39  1  0.49245000  0.14509000  0.14445000  1.0
  H  H40  1  0.88511000  0.36486000  0.43214000  1.0
  H  H41  1  0.61494000  0.63511000  0.93212000  1.0
  H  H42  1  0.11493000  0.63514000  0.56787000  1.0
  H  H43  1  0.38506000  0.36489000  0.06787000  1.0
  C  C44  1  0.33782000  0.76181000  0.42355000  1.0
  C  C45  1  0.16219000  0.23819000  0.92356000  1.0
  C  C46  1  0.66219000  0.23820000  0.57644000  1.0
  C  C47  1  0.83779000  0.76181000  0.07645000  1.0
  C  C48  1  0.85165000  0.90290000  0.43848000  1.0
  C  C49  1  0.64835000  0.09709000  0.93848000  1.0
  C  C50  1  0.14835000  0.09711000  0.56151000  1.0
  C  C51  1  0.35163000  0.90291000  0.06151000  1.0
  C  C52  1  0.73404000  0.58793000  0.34920000  1.0
  C  C53  1  0.76597000  0.41204000  0.84917000  1.0
  C  C54  1  0.26596000  0.41206000  0.65082000  1.0
  C  C55  1  0.23404000  0.58795000  0.15082000  1.0
  C  C56  1  0.80146000  0.45919000  0.30330000  1.0
  C  C57  1  0.69857000  0.54079000  0.80328000  1.0
  C  C58  1  0.19856000  0.54081000  0.69671000  1.0
  C  C59  1  0.30143000  0.45920000  0.19671000  1.0
  C  C60  1  0.79134000  0.44552000  0.20659000  1.0
  C  C61  1  0.70868000  0.55448000  0.70657000  1.0
  C  C62  1  0.20867000  0.55449000  0.79342000  1.0
  C  C63  1  0.29133000  0.44552000  0.29343000  1.0
  C  C64  1  0.85207000  0.32483000  0.16414000  1.0
  C  C65  1  0.64794000  0.67518000  0.66412000  1.0
  C  C66  1  0.14794000  0.67518000  0.83587000  1.0
  C  C67  1  0.35206000  0.32482000  0.33587000  1.0
  C  C68  1  0.92209000  0.21566000  0.21808000  1.0
  C  C69  1  0.57792000  0.78434000  0.71807000  1.0
  C  C70  1  0.07791000  0.78434000  0.78192000  1.0
  C  C71  1  0.42208000  0.21565000  0.28192000  1.0
  C  C72  1  0.97900000  0.08598000  0.17149000  1.0
  C  C73  1  0.52100000  0.91402000  0.67147000  1.0
  C  C74  1  0.02100000  0.91402000  0.82851000  1.0
  C  C75  1  0.47901000  0.08597000  0.32851000  1.0
  C  C76  1  0.93439000  0.22983000  0.31489000  1.0
  C  C77  1  0.56563000  0.77016000  0.81488000  1.0
  C  C78  1  0.06562000  0.77017000  0.68511000  1.0
  C  C79  1  0.43437000  0.22984000  0.18511000  1.0
  C  C80  1  0.87473000  0.35112000  0.35727000  1.0
  C  C81  1  0.62530000  0.64886000  0.85725000  1.0
  C  C82  1  0.12529000  0.64888000  0.64274000  1.0
  C  C83  1  0.37470000  0.35114000  0.14275000  1.0
  O  O84  1  0.72869000  0.59842000  0.43659000  1.0
  O  O85  1  0.77130000  0.40155000  0.93656000  1.0
  O  O86  1  0.27129000  0.40156000  0.56343000  1.0
  O  O87  1  0.22870000  0.59844000  0.06343000  1.0
  O  O88  1  0.67967000  0.68916000  0.29564000  1.0
  O  O89  1  0.82035000  0.31082000  0.79561000  1.0
  O  O90  1  0.32033000  0.31084000  0.70438000  1.0
  O  O91  1  0.17966000  0.68918000  0.20438000  1.0
  O  O92  1  0.04204000  0.98257000  0.21942000  1.0
  O  O93  1  0.45796000  0.01742000  0.71941000  1.0
  O  O94  1  0.95797000  0.01742000  0.78057000  1.0
  O  O95  1  0.54203000  0.98258000  0.28057000  1.0
  O  O96  1  0.96581000  0.07402000  0.08354000  1.0
  O  O97  1  0.53419000  0.92598000  0.58353000  1.0
  O  O98  1  0.03418000  0.92599000  0.91646000  1.0
  O  O99  1  0.46582000  0.07401000  0.41646000  1.0
