# generated using pymatgen
data_CdH30C35N3O11
_symmetry_space_group_name_H-M   'P 1'
_cell_length_a   10.45010000
_cell_length_b   11.21980000
_cell_length_c   15.17200000
_cell_angle_alpha   98.49150000
_cell_angle_beta   92.63060000
_cell_angle_gamma   110.65400000
_symmetry_Int_Tables_number   1
_chemical_formula_structural   CdH30C35N3O11
_chemical_formula_sum   'Cd2 H60 C70 N6 O22'
_cell_volume   1637.05395339
_cell_formula_units_Z   2
loop_
 _symmetry_equiv_pos_site_id
 _symmetry_equiv_pos_as_xyz
  1  'x, y, z'
loop_
 _atom_site_type_symbol
 _atom_site_label
 _atom_site_symmetry_multiplicity
 _atom_site_fract_x
 _atom_site_fract_y
 _atom_site_fract_z
 _atom_site_occupancy
  Cd  Cd0  1  0.18942000  0.63455000  0.80651000  1.0
  Cd  Cd1  1  0.81057000  0.36545000  0.19349000  1.0
  H  H2  1  0.05611000  0.59885000  0.96033000  1.0
  H  H3  1  0.94389000  0.40115000  0.03967000  1.0
  H  H4  1  0.08732000  0.46434000  0.94359000  1.0
  H  H5  1  0.91268000  0.53566000  0.05641000  1.0
  H  H6  1  0.57436000  0.55724000  0.93466000  1.0
  H  H7  1  0.42565000  0.44277000  0.06533000  1.0
  H  H8  1  0.31342000  0.22693000  0.74192000  1.0
  H  H9  1  0.68658000  0.77307000  0.25809000  1.0
  H  H10  1  0.18720000  0.08271000  0.90525000  1.0
  H  H11  1  0.81280000  0.91729000  0.09475000  1.0
  H  H12  1  0.70390000  0.42244000  0.97780000  1.0
  H  H13  1  0.29611000  0.57757000  0.02219000  1.0
  H  H14  1  0.45940000  0.10428000  0.78988000  1.0
  H  H15  1  0.54059000  0.89572000  0.21012000  1.0
  H  H16  1  0.60070000  0.12607000  0.96134000  1.0
  H  H17  1  0.39931000  0.87394000  0.03866000  1.0
  H  H18  1  0.75247000  0.25841000  0.96114000  1.0
  H  H19  1  0.24754000  0.74160000  0.03886000  1.0
  H  H20  1  0.62433000  0.93623000  0.97879000  1.0
  H  H21  1  0.37566000  0.06377000  0.02121000  1.0
  H  H22  1  0.53625000  0.80441000  0.89071000  1.0
  H  H23  1  0.46373000  0.19559000  0.10928000  1.0
  H  H24  1  0.48693000  0.93895000  0.90619000  1.0
  H  H25  1  0.51307000  0.06105000  0.09381000  1.0
  H  H26  1  0.76296000  0.33268000  0.75684000  1.0
  H  H27  1  0.23705000  0.66732000  0.24316000  1.0
  H  H28  1  0.94021000  0.36023000  0.76427000  1.0
  H  H29  1  0.05980000  0.63977000  0.23573000  1.0
  H  H30  1  0.85933000  0.36769000  0.86278000  1.0
  H  H31  1  0.14068000  0.63231000  0.13722000  1.0
  H  H32  1  0.83579000  0.76949000  0.81989000  1.0
  H  H33  1  0.16420000  0.23051000  0.18011000  1.0
  H  H34  1  0.67761000  0.74537000  0.86383000  1.0
  H  H35  1  0.32239000  0.25463000  0.13617000  1.0
  H  H36  1  0.06174000  0.26161000  0.73319000  1.0
  H  H37  1  0.93826000  0.73839000  0.26680000  1.0
  H  H38  1  0.05080000  0.11614000  0.66644000  1.0
  H  H39  1  0.94920000  0.88385000  0.33356000  1.0
  H  H40  1  0.97937000  0.94486000  0.63727000  1.0
  H  H41  1  0.02063000  0.05513000  0.36273000  1.0
  H  H42  1  0.81676000  0.82085000  0.62096000  1.0
  H  H43  1  0.18324000  0.17915000  0.37904000  1.0
  H  H44  1  0.94025000  0.83019000  0.70957000  1.0
  H  H45  1  0.05975000  0.16981000  0.29043000  1.0
  H  H46  1  0.82371000  0.59753000  0.74204000  1.0
  H  H47  1  0.17629000  0.40247000  0.25797000  1.0
  H  H48  1  0.50291000  0.73019000  0.70669000  1.0
  H  H49  1  0.49709000  0.26980000  0.29330000  1.0
  H  H50  1  0.74287000  0.12678000  0.60802000  1.0
  H  H51  1  0.25714000  0.87322000  0.39198000  1.0
  H  H52  1  0.16286000  0.31780000  0.59880000  1.0
  H  H53  1  0.83715000  0.68219000  0.40119000  1.0
  H  H54  1  0.70148000  0.39599000  0.62557000  1.0
  H  H55  1  0.29852000  0.60400000  0.37444000  1.0
  H  H56  1  0.36807000  0.53165000  0.59509000  1.0
  H  H57  1  0.63194000  0.46834000  0.40491000  1.0
  H  H58  1  0.68402000  0.20550000  0.47033000  1.0
  H  H59  1  0.31597000  0.79450000  0.52967000  1.0
  H  H60  1  0.12090000  0.39967000  0.46083000  1.0
  H  H61  1  0.87910000  0.60033000  0.53917000  1.0
  C  C62  1  0.34493000  0.47886000  0.81537000  1.0
  C  C63  1  0.65508000  0.52116000  0.18464000  1.0
  C  C64  1  0.10536000  0.82576000  0.89286000  1.0
  C  C65  1  0.89463000  0.17424000  0.10714000  1.0
  C  C66  1  0.43067000  0.40104000  0.83610000  1.0
  C  C67  1  0.56933000  0.59897000  0.16389000  1.0
  C  C68  1  0.05191000  0.91402000  0.95082000  1.0
  C  C69  1  0.94809000  0.08598000  0.04918000  1.0
  C  C70  1  0.54337000  0.45737000  0.90103000  1.0
  C  C71  1  0.45663000  0.54264000  0.09897000  1.0
  C  C72  1  0.39926000  0.27274000  0.79400000  1.0
  C  C73  1  0.60074000  0.72726000  0.20600000  1.0
  C  C74  1  0.94591000  0.86703000  0.00520000  1.0
  C  C75  1  0.05409000  0.13298000  0.99480000  1.0
  C  C76  1  0.10470000  0.04587000  0.94697000  1.0
  C  C77  1  0.89530000  0.95413000  0.05303000  1.0
  C  C78  1  0.61747000  0.38492000  0.92551000  1.0
  C  C79  1  0.38254000  0.61509000  0.07449000  1.0
  C  C80  1  0.47776000  0.20422000  0.81935000  1.0
  C  C81  1  0.52224000  0.79579000  0.18065000  1.0
  C  C82  1  0.88603000  0.72797000  0.01840000  1.0
  C  C83  1  0.11397000  0.27203000  0.98160000  1.0
  C  C84  1  0.66413000  0.18637000  0.91769000  1.0
  C  C85  1  0.33587000  0.81363000  0.08231000  1.0
  C  C86  1  0.71365000  0.10833000  0.84747000  1.0
  C  C87  1  0.28635000  0.89167000  0.15253000  1.0
  C  C88  1  0.67918000  0.97493000  0.84802000  1.0
  C  C89  1  0.32082000  0.02507000  0.15198000  1.0
  C  C90  1  0.81041000  0.17265000  0.79258000  1.0
  C  C91  1  0.18960000  0.82735000  0.20742000  1.0
  C  C92  1  0.74518000  0.90682000  0.79331000  1.0
  C  C93  1  0.25481000  0.09318000  0.20669000  1.0
  C  C94  1  0.57678000  0.90984000  0.90890000  1.0
  C  C95  1  0.42321000  0.09016000  0.09111000  1.0
  C  C96  1  0.87297000  0.10203000  0.73660000  1.0
  C  C97  1  0.12703000  0.89797000  0.26340000  1.0
  C  C98  1  0.84554000  0.31508000  0.79408000  1.0
  C  C99  1  0.15447000  0.68492000  0.20592000  1.0
  C  C100  1  0.73311000  0.77294000  0.80613000  1.0
  C  C101  1  0.26689000  0.22706000  0.19387000  1.0
  C  C102  1  0.83875000  0.96831000  0.73497000  1.0
  C  C103  1  0.16124000  0.03169000  0.26503000  1.0
  C  C104  1  0.99023000  0.17489000  0.68875000  1.0
  C  C105  1  0.00977000  0.82511000  0.31125000  1.0
  C  C106  1  0.89750000  0.88780000  0.67311000  1.0
  C  C107  1  0.10249000  0.11219000  0.32689000  1.0
  C  C108  1  0.72233000  0.57629000  0.70745000  1.0
  C  C109  1  0.27766000  0.42371000  0.29256000  1.0
  C  C110  1  0.54097000  0.65236000  0.68796000  1.0
  C  C111  1  0.45904000  0.34764000  0.31204000  1.0
  C  C112  1  0.82113000  0.18819000  0.57262000  1.0
  C  C113  1  0.17887000  0.81181000  0.42738000  1.0
  C  C114  1  0.05907000  0.29672000  0.56855000  1.0
  C  C115  1  0.94093000  0.70328000  0.43145000  1.0
  C  C116  1  0.65394000  0.46675000  0.64447000  1.0
  C  C117  1  0.34607000  0.53324000  0.35554000  1.0
  C  C118  1  0.46811000  0.54218000  0.62615000  1.0
  C  C119  1  0.53190000  0.45782000  0.37385000  1.0
  C  C120  1  0.79109000  0.23029000  0.49576000  1.0
  C  C121  1  0.20890000  0.76970000  0.50424000  1.0
  C  C122  1  0.03425000  0.34099000  0.49173000  1.0
  C  C123  1  0.96574000  0.65902000  0.50827000  1.0
  C  C124  1  0.52254000  0.44550000  0.60443000  1.0
  C  C125  1  0.47747000  0.55449000  0.39558000  1.0
  C  C126  1  0.89920000  0.30735000  0.45395000  1.0
  C  C127  1  0.10079000  0.69265000  0.54605000  1.0
  C  C128  1  0.44225000  0.31941000  0.53872000  1.0
  C  C129  1  0.55776000  0.68058000  0.46128000  1.0
  C  C130  1  0.87190000  0.34867000  0.36708000  1.0
  C  C131  1  0.12809000  0.65133000  0.63292000  1.0
  N  N132  1  0.58384000  0.26057000  0.88493000  1.0
  N  N133  1  0.41616000  0.73943000  0.11507000  1.0
  N  N134  1  0.66389000  0.66581000  0.72938000  1.0
  N  N135  1  0.33611000  0.33419000  0.27062000  1.0
  N  N136  1  0.95325000  0.22098000  0.60708000  1.0
  N  N137  1  0.04676000  0.77902000  0.39292000  1.0
  O  O138  1  0.23381000  0.42362000  0.76442000  1.0
  O  O139  1  0.76619000  0.57639000  0.23558000  1.0
  O  O140  1  0.39055000  0.59797000  0.85199000  1.0
  O  O141  1  0.60946000  0.40204000  0.14801000  1.0
  O  O142  1  0.11976000  0.55851000  0.93390000  1.0
  O  O143  1  0.88024000  0.44149000  0.06610000  1.0
  O  O144  1  0.01765000  0.72812000  0.84072000  1.0
  O  O145  1  0.98234000  0.27188000  0.15928000  1.0
  O  O146  1  0.23442000  0.85115000  0.89696000  1.0
  O  O147  1  0.76558000  0.14885000  0.10304000  1.0
  O  O148  1  0.03178000  0.56428000  0.66013000  1.0
  O  O149  1  0.96821000  0.43572000  0.33987000  1.0
  O  O150  1  0.24777000  0.71181000  0.67551000  1.0
  O  O151  1  0.75222000  0.28818000  0.32449000  1.0
  O  O152  1  0.97236000  0.67126000  0.02894000  1.0
  O  O153  1  0.02764000  0.32874000  0.97106000  1.0
  O  O154  1  0.75908000  0.67956000  0.02305000  1.0
  O  O155  1  0.24092000  0.32045000  0.97695000  1.0
  O  O156  1  0.31859000  0.30312000  0.51474000  1.0
  O  O157  1  0.68141000  0.69687000  0.48526000  1.0
  O  O158  1  0.50798000  0.24674000  0.51620000  1.0
  O  O159  1  0.49203000  0.75326000  0.48380000  1.0
