# generated using pymatgen
data_Zr3H2C48(O2F3)8
_symmetry_space_group_name_H-M   'P 1'
_cell_length_a   21.74856570
_cell_length_b   21.74850000
_cell_length_c   21.74830000
_cell_angle_alpha   120.00000000
_cell_angle_beta   120.00009994
_cell_angle_gamma   90.00052689
_symmetry_Int_Tables_number   1
_chemical_formula_structural   Zr3H2C48(O2F3)8
_chemical_formula_sum   'Zr6 H4 C96 O32 F48'
_cell_volume   7273.90448864
_cell_formula_units_Z   2
loop_
 _symmetry_equiv_pos_site_id
 _symmetry_equiv_pos_as_xyz
  1  'x, y, z'
loop_
 _atom_site_type_symbol
 _atom_site_label
 _atom_site_symmetry_multiplicity
 _atom_site_fract_x
 _atom_site_fract_y
 _atom_site_fract_z
 _atom_site_occupancy
  Zr  Zr0  1  0.91864000  0.08138000  0.99999000  1.0
  Zr  Zr1  1  0.08147000  0.91860000  0.00002000  1.0
  Zr  Zr2  1  0.91866000  0.91858000  0.83720000  1.0
  Zr  Zr3  1  0.08144000  0.08140000  0.16280000  1.0
  Zr  Zr4  1  0.91865000  0.91857000  0.99999000  1.0
  Zr  Zr5  1  0.08145000  0.08138000  0.00000000  1.0
  H  H6  1  0.80795000  0.93594000  0.87191000  1.0
  H  H7  1  0.06408000  0.93597000  0.12808000  1.0
  H  H8  1  0.06409000  0.93596000  0.87194000  1.0
  H  H9  1  0.06407000  0.19209000  0.12807000  1.0
  C  C10  1  0.79545000  0.00177000  0.00362000  1.0
  C  C11  1  0.99825000  0.79174000  0.99637000  1.0
  C  C12  1  0.20829000  0.00180000  0.00362000  1.0
  C  C13  1  0.99826000  0.20459000  0.99636000  1.0
  C  C14  1  0.79544000  0.00179000  0.79355000  1.0
  C  C15  1  0.99818000  0.20457000  0.20640000  1.0
  C  C16  1  0.20829000  0.00184000  0.20645000  1.0
  C  C17  1  0.99822000  0.79173000  0.79359000  1.0
  C  C18  1  0.79545000  0.79173000  0.79356000  1.0
  C  C19  1  0.99822000  0.00182000  0.79358000  1.0
  C  C20  1  0.20828000  0.20460000  0.20643000  1.0
  C  C21  1  0.99820000  0.00183000  0.20642000  1.0
  C  C22  1  0.72578000  0.00104000  0.00218000  1.0
  C  C23  1  0.69101000  0.05578000  0.00111000  1.0
  C  C24  1  0.62650000  0.05507000  0.00002000  1.0
  C  C25  1  0.59247000  0.99977000  0.99966000  1.0
  C  C26  1  0.62654000  0.94488000  0.00008000  1.0
  C  C27  1  0.69104000  0.94526000  0.00115000  1.0
  C  C28  1  0.52760000  0.99947000  0.99908000  1.0
  C  C29  1  0.47159000  0.99945000  0.99905000  1.0
  C  C30  1  0.40729000  0.99975000  0.99960000  1.0
  C  C31  1  0.37364000  0.05506000  0.99998000  1.0
  C  C32  1  0.31022000  0.05577000  0.00108000  1.0
  C  C33  1  0.27649000  0.00103000  0.00213000  1.0
  C  C34  1  0.31018000  0.94523000  0.00107000  1.0
  C  C35  1  0.37359000  0.94482000  0.99996000  1.0
  C  C36  1  0.99899000  0.27425000  0.99781000  1.0
  C  C37  1  0.94425000  0.30902000  0.99886000  1.0
  C  C38  1  0.94494000  0.37353000  0.99993000  1.0
  C  C39  1  0.00024000  0.40755000  0.00029000  1.0
  C  C40  1  0.05515000  0.37349000  0.99990000  1.0
  C  C41  1  0.05478000  0.30900000  0.99885000  1.0
  C  C42  1  0.00054000  0.47241000  0.00084000  1.0
  C  C43  1  0.00052000  0.52838000  0.00080000  1.0
  C  C44  1  0.00022000  0.59268000  0.00025000  1.0
  C  C45  1  0.94489000  0.62632000  0.99984000  1.0
  C  C46  1  0.94421000  0.68976000  0.99879000  1.0
  C  C47  1  0.99896000  0.72350000  0.99777000  1.0
  C  C48  1  0.05476000  0.68981000  0.99883000  1.0
  C  C49  1  0.05513000  0.62636000  0.99987000  1.0
  C  C50  1  0.99889000  0.00113000  0.27536000  1.0
  C  C51  1  0.94414000  0.94534000  0.25432000  1.0
  C  C52  1  0.94481000  0.94497000  0.31844000  1.0
  C  C53  1  0.00012000  0.99991000  0.40742000  1.0
  C  C54  1  0.05503000  0.05522000  0.42868000  1.0
  C  C55  1  0.05467000  0.05590000  0.36487000  1.0
  C  C56  1  0.00037000  0.99966000  0.47200000  1.0
  C  C57  1  0.00034000  0.99964000  0.52796000  1.0
  C  C58  1  0.00010000  0.99990000  0.59255000  1.0
  C  C59  1  0.94479000  0.94498000  0.57130000  1.0
  C  C60  1  0.94413000  0.94535000  0.63513000  1.0
  C  C61  1  0.99890000  0.00113000  0.72463000  1.0
  C  C62  1  0.05467000  0.05587000  0.74565000  1.0
  C  C63  1  0.05503000  0.05520000  0.68152000  1.0
  C  C64  1  0.27652000  0.27426000  0.27539000  1.0
  C  C65  1  0.31023000  0.30902000  0.25436000  1.0
  C  C66  1  0.37367000  0.37352000  0.31849000  1.0
  C  C67  1  0.40734000  0.40756000  0.40746000  1.0
  C  C68  1  0.37368000  0.37350000  0.42871000  1.0
  C  C69  1  0.31024000  0.30900000  0.36489000  1.0
  C  C70  1  0.47166000  0.47238000  0.47203000  1.0
  C  C71  1  0.52765000  0.52838000  0.52801000  1.0
  C  C72  1  0.59248000  0.59271000  0.59258000  1.0
  C  C73  1  0.62652000  0.62635000  0.57130000  1.0
  C  C74  1  0.69102000  0.68979000  0.63511000  1.0
  C  C75  1  0.72578000  0.72350000  0.72462000  1.0
  C  C76  1  0.69103000  0.68981000  0.74567000  1.0
  C  C77  1  0.62653000  0.62638000  0.68155000  1.0
  C  C78  1  0.72578000  0.00109000  0.72462000  1.0
  C  C79  1  0.69100000  0.94531000  0.63511000  1.0
  C  C80  1  0.62651000  0.94496000  0.57132000  1.0
  C  C81  1  0.59250000  0.99990000  0.59262000  1.0
  C  C82  1  0.62656000  0.05520000  0.68158000  1.0
  C  C83  1  0.69105000  0.05586000  0.74568000  1.0
  C  C84  1  0.52767000  0.99965000  0.52806000  1.0
  C  C85  1  0.47168000  0.99963000  0.47203000  1.0
  C  C86  1  0.40735000  0.99988000  0.40745000  1.0
  C  C87  1  0.37368000  0.94497000  0.31847000  1.0
  C  C88  1  0.31024000  0.94535000  0.25435000  1.0
  C  C89  1  0.27652000  0.00113000  0.27539000  1.0
  C  C90  1  0.31025000  0.05588000  0.36491000  1.0
  C  C91  1  0.37369000  0.05519000  0.42872000  1.0
  C  C92  1  0.99886000  0.27420000  0.27535000  1.0
  C  C93  1  0.94409000  0.30893000  0.25430000  1.0
  C  C94  1  0.94474000  0.37340000  0.31841000  1.0
  C  C95  1  0.00004000  0.40745000  0.40738000  1.0
  C  C96  1  0.05499000  0.37344000  0.42866000  1.0
  C  C97  1  0.05464000  0.30896000  0.36486000  1.0
  C  C98  1  0.00030000  0.47228000  0.47196000  1.0
  C  C99  1  0.00030000  0.52827000  0.52796000  1.0
  C  C100  1  0.00005000  0.59259000  0.59254000  1.0
  C  C101  1  0.94478000  0.62629000  0.57131000  1.0
  C  C102  1  0.94412000  0.68974000  0.63513000  1.0
  C  C103  1  0.99888000  0.72346000  0.72463000  1.0
  C  C104  1  0.05464000  0.68972000  0.74565000  1.0
  C  C105  1  0.05498000  0.62625000  0.68151000  1.0
  O  O106  1  0.82219000  0.05383000  0.00359000  1.0
  O  O107  1  0.05036000  0.81854000  0.99642000  1.0
  O  O108  1  0.18151000  0.94971000  0.00360000  1.0
  O  O109  1  0.94618000  0.17783000  0.99637000  1.0
  O  O110  1  0.82218000  0.94969000  0.76823000  1.0
  O  O111  1  0.05029000  0.17784000  0.23173000  1.0
  O  O112  1  0.18150000  0.05390000  0.23176000  1.0
  O  O113  1  0.94617000  0.81853000  0.76828000  1.0
  O  O114  1  0.82221000  0.81850000  0.87240000  1.0
  O  O115  1  0.05034000  0.05387000  0.87243000  1.0
  O  O116  1  0.18151000  0.17784000  0.12759000  1.0
  O  O117  1  0.94616000  0.94972000  0.12758000  1.0
  O  O118  1  0.94617000  0.94971000  0.76827000  1.0
  O  O119  1  0.18148000  0.17786000  0.23174000  1.0
  O  O120  1  0.05031000  0.05388000  0.23174000  1.0
  O  O121  1  0.82218000  0.81852000  0.76824000  1.0
  O  O122  1  0.82219000  0.05385000  0.87240000  1.0
  O  O123  1  0.05034000  0.81853000  0.87244000  1.0
  O  O124  1  0.18151000  0.94974000  0.12760000  1.0
  O  O125  1  0.94614000  0.17783000  0.12755000  1.0
  O  O126  1  0.05036000  0.17784000  0.99641000  1.0
  O  O127  1  0.82218000  0.94966000  0.00356000  1.0
  O  O128  1  0.94619000  0.81853000  0.99640000  1.0
  O  O129  1  0.18152000  0.05387000  0.00360000  1.0
  O  O130  1  0.04587000  0.13749000  0.09167000  1.0
  O  O131  1  0.04590000  0.95416000  0.90834000  1.0
  O  O132  1  0.04589000  0.95416000  0.09168000  1.0
  O  O133  1  0.86254000  0.95414000  0.90832000  1.0
  O  O134  1  0.96637000  0.89892000  0.93263000  1.0
  O  O135  1  0.96635000  0.03366000  0.06735000  1.0
  O  O136  1  0.10111000  0.03368000  0.06738000  1.0
  O  O137  1  0.96636000  0.03367000  0.93262000  1.0
  F  F138  1  0.71824000  0.11118000  0.00107000  1.0
  F  F139  1  0.71831000  0.88985000  0.00117000  1.0
  F  F140  1  0.59600000  0.89059000  0.99950000  1.0
  F  F141  1  0.59592000  0.10874000  0.99937000  1.0
  F  F142  1  0.40357000  0.10873000  0.99934000  1.0
  F  F143  1  0.40352000  0.89051000  0.99932000  1.0
  F  F144  1  0.28289000  0.88978000  0.00102000  1.0
  F  F145  1  0.28295000  0.11117000  0.00103000  1.0
  F  F146  1  0.88886000  0.28180000  0.99892000  1.0
  F  F147  1  0.11021000  0.28175000  0.99888000  1.0
  F  F148  1  0.10945000  0.40405000  0.00052000  1.0
  F  F149  1  0.89126000  0.40409000  0.00056000  1.0
  F  F150  1  0.89119000  0.59636000  0.00043000  1.0
  F  F151  1  0.10945000  0.59645000  0.00052000  1.0
  F  F152  1  0.11021000  0.71710000  0.99889000  1.0
  F  F153  1  0.88879000  0.71702000  0.99881000  1.0
  F  F154  1  0.88875000  0.88990000  0.17165000  1.0
  F  F155  1  0.11010000  0.11131000  0.39304000  1.0
  F  F156  1  0.10930000  0.10893000  0.51293000  1.0
  F  F157  1  0.89112000  0.89069000  0.29471000  1.0
  F  F158  1  0.89108000  0.89069000  0.48706000  1.0
  F  F159  1  0.10932000  0.10889000  0.70526000  1.0
  F  F160  1  0.11013000  0.11128000  0.82833000  1.0
  F  F161  1  0.88873000  0.88991000  0.60697000  1.0
  F  F162  1  0.28294000  0.28180000  0.17168000  1.0
  F  F163  1  0.28296000  0.28175000  0.39305000  1.0
  F  F164  1  0.40364000  0.40403000  0.51295000  1.0
  F  F165  1  0.40361000  0.40407000  0.29474000  1.0
  F  F166  1  0.59597000  0.59638000  0.48706000  1.0
  F  F167  1  0.59598000  0.59643000  0.70531000  1.0
  F  F168  1  0.71826000  0.71709000  0.82834000  1.0
  F  F169  1  0.71826000  0.71705000  0.60694000  1.0
  F  F170  1  0.71822000  0.88986000  0.60693000  1.0
  F  F171  1  0.71831000  0.11126000  0.82837000  1.0
  F  F172  1  0.59603000  0.10891000  0.70534000  1.0
  F  F173  1  0.59594000  0.89068000  0.48707000  1.0
  F  F174  1  0.40364000  0.89069000  0.29473000  1.0
  F  F175  1  0.40363000  0.10887000  0.51295000  1.0
  F  F176  1  0.28296000  0.11127000  0.39307000  1.0
  F  F177  1  0.28296000  0.88991000  0.17167000  1.0
  F  F178  1  0.88870000  0.28170000  0.17163000  1.0
  F  F179  1  0.11009000  0.28174000  0.39302000  1.0
  F  F180  1  0.10928000  0.40400000  0.51291000  1.0
  F  F181  1  0.89104000  0.40394000  0.29467000  1.0
  F  F182  1  0.89108000  0.59635000  0.48706000  1.0
  F  F183  1  0.10927000  0.59630000  0.70526000  1.0
  F  F184  1  0.11009000  0.71700000  0.82832000  1.0
  F  F185  1  0.88874000  0.71704000  0.60697000  1.0
