# generated using pymatgen
data_KH3C2NO2
_symmetry_space_group_name_H-M   'P 1'
_cell_length_a   7.23759000
_cell_length_b   13.56150000
_cell_length_c   23.33340000
_cell_angle_alpha   90.00020000
_cell_angle_beta   89.99920000
_cell_angle_gamma   90.00000000
_symmetry_Int_Tables_number   1
_chemical_formula_structural   KH3C2NO2
_chemical_formula_sum   'K16 H48 C32 N16 O32'
_cell_volume   2290.23333492
_cell_formula_units_Z   16
loop_
 _symmetry_equiv_pos_site_id
 _symmetry_equiv_pos_as_xyz
  1  'x, y, z'
loop_
 _atom_site_type_symbol
 _atom_site_label
 _atom_site_symmetry_multiplicity
 _atom_site_fract_x
 _atom_site_fract_y
 _atom_site_fract_z
 _atom_site_occupancy
  K  K0  1  0.59719000  0.96913000  0.79362000  1.0
  K  K1  1  0.90283000  0.46913000  0.20638000  1.0
  K  K2  1  0.09719000  0.03087000  0.70638000  1.0
  K  K3  1  0.40284000  0.53087000  0.29363000  1.0
  K  K4  1  0.40283000  0.03087000  0.20637000  1.0
  K  K5  1  0.09715000  0.53086000  0.79363000  1.0
  K  K6  1  0.90283000  0.96914000  0.29363000  1.0
  K  K7  1  0.59716000  0.46914000  0.70637000  1.0
  K  K8  1  0.42316000  0.28437000  0.81221000  1.0
  K  K9  1  0.07684000  0.78437000  0.18779000  1.0
  K  K10  1  0.92316000  0.71563000  0.68779000  1.0
  K  K11  1  0.57684000  0.21563000  0.31222000  1.0
  K  K12  1  0.57684000  0.71563000  0.18778000  1.0
  K  K13  1  0.92316000  0.21563000  0.81222000  1.0
  K  K14  1  0.07685000  0.28437000  0.31222000  1.0
  K  K15  1  0.42316000  0.78437000  0.68778000  1.0
  H  H16  1  0.75678000  0.64193000  0.86764000  1.0
  H  H17  1  0.74320000  0.14194000  0.13237000  1.0
  H  H18  1  0.25679000  0.35806000  0.63236000  1.0
  H  H19  1  0.24320000  0.85806000  0.36764000  1.0
  H  H20  1  0.24320000  0.35806000  0.13236000  1.0
  H  H21  1  0.25681000  0.85806000  0.86764000  1.0
  H  H22  1  0.74320000  0.64194000  0.36764000  1.0
  H  H23  1  0.75682000  0.14194000  0.63236000  1.0
  H  H24  1  0.49503000  0.73986000  0.90476000  1.0
  H  H25  1  0.00494000  0.23987000  0.09524000  1.0
  H  H26  1  0.99503000  0.26013000  0.59523000  1.0
  H  H27  1  0.50495000  0.76013000  0.40477000  1.0
  H  H28  1  0.50496000  0.26013000  0.09523000  1.0
  H  H29  1  0.99506000  0.76013000  0.90477000  1.0
  H  H30  1  0.00495000  0.73987000  0.40477000  1.0
  H  H31  1  0.49507000  0.23987000  0.59523000  1.0
  H  H32  1  0.33539000  0.65097000  0.88104000  1.0
  H  H33  1  0.16458000  0.15097000  0.11896000  1.0
  H  H34  1  0.83539000  0.34903000  0.61895000  1.0
  H  H35  1  0.66460000  0.84902000  0.38104000  1.0
  H  H36  1  0.66459000  0.34903000  0.11895000  1.0
  H  H37  1  0.83542000  0.84902000  0.88104000  1.0
  H  H38  1  0.16460000  0.65098000  0.38105000  1.0
  H  H39  1  0.33543000  0.15098000  0.61895000  1.0
  H  H40  1  0.47965000  0.52403000  0.94702000  1.0
  H  H41  1  0.02033000  0.02403000  0.05298000  1.0
  H  H42  1  0.97966000  0.47597000  0.55297000  1.0
  H  H43  1  0.52034000  0.97597000  0.44702000  1.0
  H  H44  1  0.52033000  0.47597000  0.05297000  1.0
  H  H45  1  0.97967000  0.97597000  0.94702000  1.0
  H  H46  1  0.02034000  0.52403000  0.44703000  1.0
  H  H47  1  0.47968000  0.02404000  0.55297000  1.0
  H  H48  1  0.64139000  0.61295000  0.97103000  1.0
  H  H49  1  0.85859000  0.11295000  0.02897000  1.0
  H  H50  1  0.14139000  0.38704000  0.52896000  1.0
  H  H51  1  0.35860000  0.88705000  0.47104000  1.0
  H  H52  1  0.35859000  0.38704000  0.02896000  1.0
  H  H53  1  0.14140000  0.88705000  0.97104000  1.0
  H  H54  1  0.85860000  0.61295000  0.47104000  1.0
  H  H55  1  0.64141000  0.11296000  0.52896000  1.0
  H  H56  1  0.40247000  0.62803000  0.98646000  1.0
  H  H57  1  0.09750000  0.12803000  0.01354000  1.0
  H  H58  1  0.90248000  0.37197000  0.51354000  1.0
  H  H59  1  0.59752000  0.87197000  0.48646000  1.0
  H  H60  1  0.59751000  0.37197000  0.01354000  1.0
  H  H61  1  0.90249000  0.87197000  0.98646000  1.0
  H  H62  1  0.09751000  0.62803000  0.48646000  1.0
  H  H63  1  0.40251000  0.12804000  0.51354000  1.0
  C  C64  1  0.59942000  0.69076000  0.79605000  1.0
  C  C65  1  0.90057000  0.19075000  0.20396000  1.0
  C  C66  1  0.09942000  0.30924000  0.70395000  1.0
  C  C67  1  0.40057000  0.80925000  0.29605000  1.0
  C  C68  1  0.40056000  0.30925000  0.20395000  1.0
  C  C69  1  0.09944000  0.80924000  0.79605000  1.0
  C  C70  1  0.90056000  0.69075000  0.29605000  1.0
  C  C71  1  0.59946000  0.19076000  0.70395000  1.0
  C  C72  1  0.61502000  0.62984000  0.85191000  1.0
  C  C73  1  0.88496000  0.12984000  0.14809000  1.0
  C  C74  1  0.11503000  0.37016000  0.64808000  1.0
  C  C75  1  0.38496000  0.87016000  0.35192000  1.0
  C  C76  1  0.38496000  0.37016000  0.14808000  1.0
  C  C77  1  0.11505000  0.87016000  0.85192000  1.0
  C  C78  1  0.88496000  0.62984000  0.35192000  1.0
  C  C79  1  0.61506000  0.12984000  0.64808000  1.0
  C  C80  1  0.47619000  0.66036000  0.89799000  1.0
  C  C81  1  0.02378000  0.16036000  0.10201000  1.0
  C  C82  1  0.97619000  0.33963000  0.60201000  1.0
  C  C83  1  0.52379000  0.83963000  0.39799000  1.0
  C  C84  1  0.52379000  0.33963000  0.10201000  1.0
  C  C85  1  0.97622000  0.83963000  0.89799000  1.0
  C  C86  1  0.02379000  0.66037000  0.39799000  1.0
  C  C87  1  0.47623000  0.16037000  0.60201000  1.0
  C  C88  1  0.50113000  0.60336000  0.95370000  1.0
  C  C89  1  0.99884000  0.10336000  0.04630000  1.0
  C  C90  1  0.00113000  0.39664000  0.54630000  1.0
  C  C91  1  0.49886000  0.89664000  0.45370000  1.0
  C  C92  1  0.49885000  0.39664000  0.04630000  1.0
  C  C93  1  0.00115000  0.89664000  0.95370000  1.0
  C  C94  1  0.99885000  0.60336000  0.45371000  1.0
  C  C95  1  0.50117000  0.10337000  0.54629000  1.0
  N  N96  1  0.60345000  0.52355000  0.84015000  1.0
  N  N97  1  0.89654000  0.02355000  0.15986000  1.0
  N  N98  1  0.10346000  0.47645000  0.65985000  1.0
  N  N99  1  0.39653000  0.97645000  0.34015000  1.0
  N  N100  1  0.39653000  0.47645000  0.15985000  1.0
  N  N101  1  0.10347000  0.97645000  0.84015000  1.0
  N  N102  1  0.89653000  0.52355000  0.34015000  1.0
  N  N103  1  0.60348000  0.02355000  0.65985000  1.0
  N  N104  1  0.75547000  0.47278000  0.84804000  1.0
  N  N105  1  0.74451000  0.97278000  0.15196000  1.0
  N  N106  1  0.25548000  0.52722000  0.65196000  1.0
  N  N107  1  0.24450000  0.02722000  0.34804000  1.0
  N  N108  1  0.24451000  0.52722000  0.15196000  1.0
  N  N109  1  0.25550000  0.02722000  0.84804000  1.0
  N  N110  1  0.74452000  0.47278000  0.34804000  1.0
  N  N111  1  0.75550000  0.97278000  0.65196000  1.0
  O  O112  1  0.55581000  0.78040000  0.80169000  1.0
  O  O113  1  0.94419000  0.28040000  0.19831000  1.0
  O  O114  1  0.05582000  0.21960000  0.69830000  1.0
  O  O115  1  0.44418000  0.71960000  0.30170000  1.0
  O  O116  1  0.44419000  0.21960000  0.19830000  1.0
  O  O117  1  0.05583000  0.71960000  0.80170000  1.0
  O  O118  1  0.94419000  0.78041000  0.30170000  1.0
  O  O119  1  0.55584000  0.28040000  0.69830000  1.0
  O  O120  1  0.63648000  0.64801000  0.74890000  1.0
  O  O121  1  0.86352000  0.14801000  0.25110000  1.0
  O  O122  1  0.13648000  0.35199000  0.75110000  1.0
  O  O123  1  0.36352000  0.85199000  0.24890000  1.0
  O  O124  1  0.36351000  0.35199000  0.25110000  1.0
  O  O125  1  0.13650000  0.85199000  0.74890000  1.0
  O  O126  1  0.86350000  0.64801000  0.24891000  1.0
  O  O127  1  0.63650000  0.14801000  0.75110000  1.0
  O  O128  1  0.44658000  0.48574000  0.82285000  1.0
  O  O129  1  0.05340000  0.98574000  0.17715000  1.0
  O  O130  1  0.94658000  0.51426000  0.67714000  1.0
  O  O131  1  0.55340000  0.01426000  0.32286000  1.0
  O  O132  1  0.55342000  0.51426000  0.17714000  1.0
  O  O133  1  0.94659000  0.01426000  0.82286000  1.0
  O  O134  1  0.05342000  0.48574000  0.32286000  1.0
  O  O135  1  0.44660000  0.98575000  0.67714000  1.0
  O  O136  1  0.74047000  0.37935000  0.83733000  1.0
  O  O137  1  0.75952000  0.87936000  0.16267000  1.0
  O  O138  1  0.24048000  0.62064000  0.66267000  1.0
  O  O139  1  0.25952000  0.12064000  0.33733000  1.0
  O  O140  1  0.25951000  0.62064000  0.16267000  1.0
  O  O141  1  0.24049000  0.12064000  0.83732000  1.0
  O  O142  1  0.75952000  0.37936000  0.33733000  1.0
  O  O143  1  0.74050000  0.87936000  0.66267000  1.0
