# generated using pymatgen
data_NiH16C21S2(N2O)3
_symmetry_space_group_name_H-M   'P 1'
_cell_length_a   7.96897000
_cell_length_b   9.24823000
_cell_length_c   15.31970000
_cell_angle_alpha   107.38500000
_cell_angle_beta   93.15220000
_cell_angle_gamma   101.64800000
_symmetry_Int_Tables_number   1
_chemical_formula_structural   NiH16C21S2(N2O)3
_chemical_formula_sum   'Ni2 H32 C42 S4 N12 O6'
_cell_volume   1047.21714623
_cell_formula_units_Z   2
loop_
 _symmetry_equiv_pos_site_id
 _symmetry_equiv_pos_as_xyz
  1  'x, y, z'
loop_
 _atom_site_type_symbol
 _atom_site_label
 _atom_site_symmetry_multiplicity
 _atom_site_fract_x
 _atom_site_fract_y
 _atom_site_fract_z
 _atom_site_occupancy
  Ni  Ni0  1  0.28225000  0.23556000  0.00578000  1.0
  Ni  Ni1  1  0.71775000  0.76445000  0.99422000  1.0
  H  H2  1  0.09380000  0.43931000  0.93231000  1.0
  H  H3  1  0.90620000  0.56068000  0.06769000  1.0
  H  H4  1  0.97580000  0.44800000  0.78083000  1.0
  H  H5  1  0.02420000  0.55199000  0.21917000  1.0
  H  H6  1  0.05929000  0.98669000  0.65807000  1.0
  H  H7  1  0.94070000  0.01330000  0.34193000  1.0
  H  H8  1  0.19431000  0.00591000  0.81275000  1.0
  H  H9  1  0.80569000  0.99408000  0.18725000  1.0
  H  H10  1  0.24408000  0.05233000  0.13900000  1.0
  H  H11  1  0.75592000  0.94767000  0.86101000  1.0
  H  H12  1  0.41194000  0.03935000  0.27929000  1.0
  H  H13  1  0.58806000  0.96065000  0.72072000  1.0
  H  H14  1  0.79791000  0.42790000  0.26229000  1.0
  H  H15  1  0.20209000  0.57209000  0.73771000  1.0
  H  H16  1  0.61883000  0.42134000  0.12303000  1.0
  H  H17  1  0.38117000  0.57865000  0.87697000  1.0
  H  H18  1  0.77262000  0.09612000  0.49684000  1.0
  H  H19  1  0.22738000  0.90388000  0.50316000  1.0
  H  H20  1  0.80257000  0.99307000  0.57541000  1.0
  H  H21  1  0.19743000  0.00692000  0.42458000  1.0
  H  H22  1  0.90160000  0.34652000  0.47562000  1.0
  H  H23  1  0.09840000  0.65348000  0.52438000  1.0
  H  H24  1  0.88057000  0.44375000  0.39393000  1.0
  H  H25  1  0.11943000  0.55625000  0.60607000  1.0
  H  H26  1  0.29012000  0.54633000  0.21285000  1.0
  H  H27  1  0.70988000  0.45367000  0.78715000  1.0
  H  H28  1  0.20311000  0.35917000  0.29928000  1.0
  H  H29  1  0.79689000  0.64084000  0.70072000  1.0
  H  H30  1  0.30310000  0.18441000  0.56870000  1.0
  H  H31  1  0.69691000  0.81560000  0.43131000  1.0
  H  H32  1  0.46636000  0.22328000  0.72061000  1.0
  H  H33  1  0.53365000  0.77673000  0.27940000  1.0
  C  C34  1  0.38491000  0.60001000  0.05964000  1.0
  C  C35  1  0.61509000  0.39999000  0.94036000  1.0
  C  C36  1  0.11214000  0.88598000  0.94552000  1.0
  C  C37  1  0.88787000  0.11402000  0.05447000  1.0
  C  C38  1  0.08666000  0.34242000  0.86970000  1.0
  C  C39  1  0.91333000  0.65758000  0.13030000  1.0
  C  C40  1  0.01890000  0.34571000  0.78496000  1.0
  C  C41  1  0.98109000  0.65428000  0.21504000  1.0
  C  C42  1  0.00635000  0.21742000  0.70643000  1.0
  C  C43  1  0.99364000  0.78257000  0.29357000  1.0
  C  C44  1  0.06494000  0.09006000  0.71657000  1.0
  C  C45  1  0.93506000  0.90993000  0.28343000  1.0
  C  C46  1  0.13930000  0.09932000  0.80301000  1.0
  C  C47  1  0.86070000  0.90067000  0.19699000  1.0
  C  C48  1  0.93652000  0.22298000  0.61483000  1.0
  C  C49  1  0.06348000  0.77702000  0.38517000  1.0
  C  C50  1  0.36774000  0.13267000  0.16876000  1.0
  C  C51  1  0.63226000  0.86733000  0.83124000  1.0
  C  C52  1  0.46082000  0.12571000  0.24627000  1.0
  C  C53  1  0.53918000  0.87429000  0.75373000  1.0
  C  C54  1  0.61817000  0.23270000  0.28269000  1.0
  C  C55  1  0.38183000  0.76730000  0.71732000  1.0
  C  C56  1  0.67685000  0.34105000  0.23774000  1.0
  C  C57  1  0.32314000  0.65895000  0.76226000  1.0
  C  C58  1  0.57717000  0.33883000  0.15975000  1.0
  C  C59  1  0.42283000  0.66116000  0.84025000  1.0
  C  C60  1  0.71339000  0.22649000  0.36843000  1.0
  C  C61  1  0.28662000  0.77351000  0.63157000  1.0
  C  C62  1  0.35811000  0.56582000  0.28029000  1.0
  C  C63  1  0.64190000  0.43419000  0.71971000  1.0
  C  C64  1  0.31044000  0.46016000  0.32789000  1.0
  C  C65  1  0.68957000  0.53985000  0.67210000  1.0
  C  C66  1  0.40311000  0.48034000  0.41257000  1.0
  C  C67  1  0.59689000  0.51967000  0.58743000  1.0
  C  C68  1  0.35809000  0.36086000  0.45910000  1.0
  C  C69  1  0.64191000  0.63915000  0.54090000  1.0
  C  C70  1  0.45745000  0.38874000  0.54950000  1.0
  C  C71  1  0.54255000  0.61127000  0.45051000  1.0
  C  C72  1  0.41222000  0.28299000  0.59796000  1.0
  C  C73  1  0.58779000  0.71702000  0.40204000  1.0
  C  C74  1  0.50341000  0.30531000  0.68281000  1.0
  C  C75  1  0.49660000  0.69469000  0.31719000  1.0
  S  S76  1  0.45490000  0.78468000  0.07567000  1.0
  S  S77  1  0.54510000  0.21532000  0.92433000  1.0
  S  S78  1  0.97188000  0.72007000  0.91306000  1.0
  S  S79  1  0.02813000  0.27994000  0.08693000  1.0
  N  N80  1  0.33568000  0.46490000  0.04662000  1.0
  N  N81  1  0.66432000  0.53511000  0.95338000  1.0
  N  N82  1  0.21349000  0.00704000  0.96913000  1.0
  N  N83  1  0.78651000  0.99295000  0.03087000  1.0
  N  N84  1  0.14963000  0.22251000  0.87871000  1.0
  N  N85  1  0.85037000  0.77748000  0.12129000  1.0
  N  N86  1  0.83252000  0.09278000  0.55800000  1.0
  N  N87  1  0.16748000  0.90721000  0.44200000  1.0
  N  N88  1  0.42470000  0.23718000  0.12583000  1.0
  N  N89  1  0.57530000  0.76282000  0.87417000  1.0
  N  N90  1  0.84352000  0.34740000  0.41397000  1.0
  N  N91  1  0.15648000  0.65260000  0.58603000  1.0
  O  O92  1  0.97605000  0.34748000  0.59537000  1.0
  O  O93  1  0.02395000  0.65252000  0.40463000  1.0
  O  O94  1  0.66780000  0.11011000  0.39503000  1.0
  O  O95  1  0.33220000  0.88989000  0.60498000  1.0
  O  O96  1  0.24430000  0.23987000  0.42232000  1.0
  O  O97  1  0.75570000  0.76014000  0.57768000  1.0
