# generated using pymatgen
data_ZnH20C25S2(NO)4
_symmetry_space_group_name_H-M   'P 1'
_cell_length_a   7.87037000
_cell_length_b   11.54040000
_cell_length_c   15.10540000
_cell_angle_alpha   71.86230000
_cell_angle_beta   83.49430000
_cell_angle_gamma   74.72020000
_symmetry_Int_Tables_number   1
_chemical_formula_structural   ZnH20C25S2(NO)4
_chemical_formula_sum   'Zn2 H40 C50 S4 N8 O8'
_cell_volume   1256.98843518
_cell_formula_units_Z   2
loop_
 _symmetry_equiv_pos_site_id
 _symmetry_equiv_pos_as_xyz
  1  'x, y, z'
loop_
 _atom_site_type_symbol
 _atom_site_label
 _atom_site_symmetry_multiplicity
 _atom_site_fract_x
 _atom_site_fract_y
 _atom_site_fract_z
 _atom_site_occupancy
  Zn  Zn0  1  0.18436000  0.38586000  0.68627000  1.0
  Zn  Zn1  1  0.81565000  0.61414000  0.31373000  1.0
  H  H2  1  0.15343000  0.64820000  0.54340000  1.0
  H  H3  1  0.84655000  0.35180000  0.45659000  1.0
  H  H4  1  0.99686000  0.86758000  0.54277000  1.0
  H  H5  1  0.00312000  0.13242000  0.45722000  1.0
  H  H6  1  0.71325000  0.70584000  0.79347000  1.0
  H  H7  1  0.28676000  0.29416000  0.20654000  1.0
  H  H8  1  0.88847000  0.49628000  0.78612000  1.0
  H  H9  1  0.11153000  0.50372000  0.21388000  1.0
  H  H10  1  0.85257000  0.99461000  0.65312000  1.0
  H  H11  1  0.14743000  0.00539000  0.34688000  1.0
  H  H12  1  0.65081000  0.97905000  0.62397000  1.0
  H  H13  1  0.34918000  0.02095000  0.37603000  1.0
  H  H14  1  0.77877000  0.89113000  0.82400000  1.0
  H  H15  1  0.22123000  0.10887000  0.17600000  1.0
  H  H16  1  0.57160000  0.88936000  0.79137000  1.0
  H  H17  1  0.42840000  0.11064000  0.20864000  1.0
  H  H18  1  0.49326000  0.12380000  0.72901000  1.0
  H  H19  1  0.50674000  0.87621000  0.27099000  1.0
  H  H20  1  0.53833000  0.06780000  0.84949000  1.0
  H  H21  1  0.46167000  0.93220000  0.15051000  1.0
  H  H22  1  0.62946000  0.28173000  0.63349000  1.0
  H  H23  1  0.37055000  0.71827000  0.36651000  1.0
  H  H24  1  0.86318000  0.39743000  0.60719000  1.0
  H  H25  1  0.13682000  0.60258000  0.39281000  1.0
  H  H26  1  0.10731000  0.16257000  0.85127000  1.0
  H  H27  1  0.89270000  0.83743000  0.14873000  1.0
  H  H28  1  0.88365000  0.03437000  0.88579000  1.0
  H  H29  1  0.11636000  0.96563000  0.11421000  1.0
  H  H30  1  0.46742000  0.48748000  0.35464000  1.0
  H  H31  1  0.53259000  0.51252000  0.64535000  1.0
  H  H32  1  0.64340000  0.39205000  0.23497000  1.0
  H  H33  1  0.35661000  0.60794000  0.76503000  1.0
  H  H34  1  0.44832000  0.11430000  0.52594000  1.0
  H  H35  1  0.55168000  0.88570000  0.47406000  1.0
  H  H36  1  0.87053000  0.35022000  0.94133000  1.0
  H  H37  1  0.12947000  0.64978000  0.05867000  1.0
  H  H38  1  0.64118000  0.39698000  0.82240000  1.0
  H  H39  1  0.35882000  0.60302000  0.17760000  1.0
  H  H40  1  0.27465000  0.29371000  0.04807000  1.0
  H  H41  1  0.72534000  0.70630000  0.95193000  1.0
  C  C42  1  0.05478000  0.66696000  0.59702000  1.0
  C  C43  1  0.94521000  0.33304000  0.40297000  1.0
  C  C44  1  0.96652000  0.78781000  0.59785000  1.0
  C  C45  1  0.03347000  0.21219000  0.40215000  1.0
  C  C46  1  0.84381000  0.80688000  0.67000000  1.0
  C  C47  1  0.15619000  0.19312000  0.33001000  1.0
  C  C48  1  0.81119000  0.69917000  0.73710000  1.0
  C  C49  1  0.18881000  0.30083000  0.26291000  1.0
  C  C50  1  0.90540000  0.58125000  0.73249000  1.0
  C  C51  1  0.09461000  0.41875000  0.26752000  1.0
  C  C52  1  0.75520000  0.93698000  0.67546000  1.0
  C  C53  1  0.24480000  0.06303000  0.32454000  1.0
  C  C54  1  0.67625000  0.94045000  0.77200000  1.0
  C  C55  1  0.32375000  0.05955000  0.22800000  1.0
  C  C56  1  0.59836000  0.07404000  0.77911000  1.0
  C  C57  1  0.40164000  0.92597000  0.22089000  1.0
  C  C58  1  0.73601000  0.14779000  0.76202000  1.0
  C  C59  1  0.26400000  0.85222000  0.23798000  1.0
  C  C60  1  0.73446000  0.25083000  0.68283000  1.0
  C  C61  1  0.26555000  0.74917000  0.31717000  1.0
  C  C62  1  0.86543000  0.31570000  0.66809000  1.0
  C  C63  1  0.13458000  0.68429000  0.33191000  1.0
  C  C64  1  0.00068000  0.18389000  0.80421000  1.0
  C  C65  1  0.99933000  0.81611000  0.19579000  1.0
  C  C66  1  0.87432000  0.11437000  0.82307000  1.0
  C  C67  1  0.12568000  0.88563000  0.17693000  1.0
  C  C68  1  0.34601000  0.36336000  0.52341000  1.0
  C  C69  1  0.65398000  0.63664000  0.47659000  1.0
  C  C70  1  0.44743000  0.30807000  0.45049000  1.0
  C  C71  1  0.55256000  0.69193000  0.54951000  1.0
  C  C72  1  0.50114000  0.38617000  0.36671000  1.0
  C  C73  1  0.49886000  0.61383000  0.63329000  1.0
  C  C74  1  0.59901000  0.33368000  0.30031000  1.0
  C  C75  1  0.40100000  0.66632000  0.69970000  1.0
  C  C76  1  0.64269000  0.20279000  0.32166000  1.0
  C  C77  1  0.35732000  0.79721000  0.67834000  1.0
  C  C78  1  0.49340000  0.17822000  0.46323000  1.0
  C  C79  1  0.50660000  0.82177000  0.53677000  1.0
  C  C80  1  0.68836000  0.29274000  0.05639000  1.0
  C  C81  1  0.31164000  0.70727000  0.94361000  1.0
  C  C82  1  0.73655000  0.33976000  0.96213000  1.0
  C  C83  1  0.26345000  0.66024000  0.03787000  1.0
  C  C84  1  0.61017000  0.36548000  0.89684000  1.0
  C  C85  1  0.38983000  0.63453000  0.10316000  1.0
  C  C86  1  0.44177000  0.34625000  0.92667000  1.0
  C  C87  1  0.55823000  0.65374000  0.07333000  1.0
  C  C88  1  0.40634000  0.30602000  0.02270000  1.0
  C  C89  1  0.59366000  0.69397000  0.97730000  1.0
  C  C90  1  0.30428000  0.36031000  0.86031000  1.0
  C  C91  1  0.69571000  0.63969000  0.13969000  1.0
  S  S92  1  0.77641000  0.11707000  0.24874000  1.0
  S  S93  1  0.22359000  0.88292000  0.75126000  1.0
  S  S94  1  0.85729000  0.24749000  0.13902000  1.0
  S  S95  1  0.14271000  0.75250000  0.86099000  1.0
  N  N96  1  0.99626000  0.28356000  0.72796000  1.0
  N  N97  1  0.00374000  0.71644000  0.27204000  1.0
  N  N98  1  0.02721000  0.56425000  0.66449000  1.0
  N  N99  1  0.97279000  0.43575000  0.33551000  1.0
  N  N100  1  0.52674000  0.27896000  0.08678000  1.0
  N  N101  1  0.47325000  0.72104000  0.91322000  1.0
  N  N102  1  0.59100000  0.12570000  0.40050000  1.0
  N  N103  1  0.40901000  0.87430000  0.59950000  1.0
  O  O104  1  0.36043000  0.37454000  0.77414000  1.0
  O  O105  1  0.63957000  0.62545000  0.22587000  1.0
  O  O106  1  0.15086000  0.35450000  0.89000000  1.0
  O  O107  1  0.84913000  0.64551000  0.11000000  1.0
  O  O108  1  0.31997000  0.28514000  0.60351000  1.0
  O  O109  1  0.68004000  0.71485000  0.39649000  1.0
  O  O110  1  0.29282000  0.48034000  0.50634000  1.0
  O  O111  1  0.70714000  0.51965000  0.49365000  1.0
