# generated using pymatgen
data_Zn2H16C19N2O9
_symmetry_space_group_name_H-M   'P 1'
_cell_length_a   8.38899000
_cell_length_b   9.70187000
_cell_length_c   12.98690000
_cell_angle_alpha   94.28600000
_cell_angle_beta   108.63000000
_cell_angle_gamma   91.43120000
_symmetry_Int_Tables_number   1
_chemical_formula_structural   Zn2H16C19N2O9
_chemical_formula_sum   'Zn4 H32 C38 N4 O18'
_cell_volume   997.46784015
_cell_formula_units_Z   2
loop_
 _symmetry_equiv_pos_site_id
 _symmetry_equiv_pos_as_xyz
  1  'x, y, z'
loop_
 _atom_site_type_symbol
 _atom_site_label
 _atom_site_symmetry_multiplicity
 _atom_site_fract_x
 _atom_site_fract_y
 _atom_site_fract_z
 _atom_site_occupancy
  Zn  Zn0  1  0.76743000  0.38300000  0.22170000  1.0
  Zn  Zn1  1  0.23257000  0.61701000  0.77830000  1.0
  Zn  Zn2  1  0.80161000  0.73849000  0.90210000  1.0
  Zn  Zn3  1  0.19839000  0.26151000  0.09790000  1.0
  H  H4  1  0.51270000  0.80115000  0.31217000  1.0
  H  H5  1  0.48731000  0.19885000  0.68783000  1.0
  H  H6  1  0.24277000  0.75903000  0.18329000  1.0
  H  H7  1  0.75723000  0.24097000  0.81672000  1.0
  H  H8  1  0.36730000  0.61073000  0.01351000  1.0
  H  H9  1  0.63270000  0.38927000  0.98649000  1.0
  H  H10  1  0.34912000  0.91735000  0.00695000  1.0
  H  H11  1  0.65087000  0.08264000  0.99305000  1.0
  H  H12  1  0.47968000  0.97357000  0.18961000  1.0
  H  H13  1  0.52032000  0.02643000  0.81039000  1.0
  H  H14  1  0.66315000  0.90306000  0.17186000  1.0
  H  H15  1  0.33685000  0.09694000  0.82814000  1.0
  H  H16  1  0.79312000  0.08822000  0.25623000  1.0
  H  H17  1  0.20688000  0.91178000  0.74377000  1.0
  H  H18  1  0.80325000  0.93069000  0.40049000  1.0
  H  H19  1  0.19675000  0.06931000  0.59951000  1.0
  H  H20  1  0.62500000  0.84267000  0.50262000  1.0
  H  H21  1  0.37500000  0.15733000  0.49737000  1.0
  H  H22  1  0.63793000  0.70475000  0.66067000  1.0
  H  H23  1  0.36206000  0.29525000  0.33933000  1.0
  H  H24  1  0.94644000  0.00984000  0.88089000  1.0
  H  H25  1  0.05356000  0.99015000  0.11911000  1.0
  H  H26  1  0.95409000  0.15556000  0.73326000  1.0
  H  H27  1  0.04591000  0.84443000  0.26674000  1.0
  H  H28  1  0.75335000  0.29452000  0.60352000  1.0
  H  H29  1  0.24666000  0.70548000  0.39649000  1.0
  H  H30  1  0.75802000  0.43488000  0.45268000  1.0
  H  H31  1  0.24198000  0.56512000  0.54732000  1.0
  H  H32  1  0.94261000  0.59179000  0.32499000  1.0
  H  H33  1  0.05739000  0.40821000  0.67501000  1.0
  H  H34  1  0.09121000  0.50147000  0.30191000  1.0
  H  H35  1  0.90879000  0.49853000  0.69809000  1.0
  C  C36  1  0.51058000  0.75979000  0.23052000  1.0
  C  C37  1  0.48942000  0.24021000  0.76948000  1.0
  C  C38  1  0.33601000  0.69259000  0.16444000  1.0
  C  C39  1  0.66399000  0.30741000  0.83556000  1.0
  C  C40  1  0.31921000  0.70347000  0.04468000  1.0
  C  C41  1  0.68079000  0.29653000  0.95532000  1.0
  C  C42  1  0.43012000  0.83404000  0.04270000  1.0
  C  C43  1  0.56987000  0.16596000  0.95730000  1.0
  C  C44  1  0.53076000  0.87962000  0.16278000  1.0
  C  C45  1  0.46924000  0.12038000  0.83722000  1.0
  C  C46  1  0.65870000  0.66526000  0.24937000  1.0
  C  C47  1  0.34130000  0.33474000  0.75063000  1.0
  C  C48  1  0.29090000  0.54803000  0.18900000  1.0
  C  C49  1  0.70910000  0.45197000  0.81101000  1.0
  C  C50  1  0.14096000  0.71785000  0.97251000  1.0
  C  C51  1  0.85903000  0.28215000  0.02750000  1.0
  C  C52  1  0.53276000  0.80180000  0.96704000  1.0
  C  C53  1  0.46724000  0.19820000  0.03296000  1.0
  C  C54  1  0.78616000  0.12861000  0.33506000  1.0
  C  C55  1  0.21383000  0.87139000  0.66495000  1.0
  C  C56  1  0.79020000  0.04153000  0.41591000  1.0
  C  C57  1  0.20980000  0.95848000  0.58409000  1.0
  C  C58  1  0.78019000  0.09979000  0.51569000  1.0
  C  C59  1  0.21981000  0.90021000  0.48431000  1.0
  C  C60  1  0.78482000  0.01317000  0.60515000  1.0
  C  C61  1  0.21518000  0.98682000  0.39485000  1.0
  C  C62  1  0.69761000  0.88352000  0.58527000  1.0
  C  C63  1  0.30239000  0.11648000  0.41473000  1.0
  C  C64  1  0.70190000  0.80684000  0.67219000  1.0
  C  C65  1  0.29810000  0.19316000  0.32780000  1.0
  C  C66  1  0.87636000  0.97615000  0.79608000  1.0
  C  C67  1  0.12364000  0.02384000  0.20392000  1.0
  C  C68  1  0.87758000  0.05872000  0.71346000  1.0
  C  C69  1  0.12242000  0.94128000  0.28654000  1.0
  C  C70  1  0.76633000  0.24332000  0.52903000  1.0
  C  C71  1  0.23367000  0.75668000  0.47097000  1.0
  C  C72  1  0.76492000  0.32280000  0.44405000  1.0
  C  C73  1  0.23508000  0.67720000  0.55595000  1.0
  N  N74  1  0.77364000  0.26626000  0.34830000  1.0
  N  N75  1  0.22636000  0.73374000  0.65169000  1.0
  N  N76  1  0.78877000  0.85320000  0.77605000  1.0
  N  N77  1  0.21123000  0.14680000  0.22395000  1.0
  O  O78  1  0.62490000  0.54304000  0.20001000  1.0
  O  O79  1  0.37510000  0.45697000  0.79999000  1.0
  O  O80  1  0.99036000  0.49768000  0.32609000  1.0
  O  O81  1  0.00964000  0.50232000  0.67391000  1.0
  O  O82  1  0.80125000  0.71351000  0.31140000  1.0
  O  O83  1  0.19875000  0.28649000  0.68859000  1.0
  O  O84  1  0.29294000  0.52778000  0.28421000  1.0
  O  O85  1  0.70706000  0.47223000  0.71579000  1.0
  O  O86  1  0.24315000  0.45862000  0.10559000  1.0
  O  O87  1  0.75685000  0.54137000  0.89442000  1.0
  O  O88  1  0.03472000  0.76850000  0.01453000  1.0
  O  O89  1  0.96528000  0.23149000  0.98547000  1.0
  O  O90  1  0.09825000  0.68551000  0.86982000  1.0
  O  O91  1  0.90175000  0.31449000  0.13018000  1.0
  O  O92  1  0.45949000  0.74820000  0.87084000  1.0
  O  O93  1  0.54051000  0.25180000  0.12915000  1.0
  O  O94  1  0.69192000  0.83171000  0.00319000  1.0
  O  O95  1  0.30809000  0.16829000  0.99681000  1.0
