# generated using pymatgen
data_ZnH4C7(NO2)4
_symmetry_space_group_name_H-M   'P 1'
_cell_length_a   7.94235000
_cell_length_b   8.99503000
_cell_length_c   14.08080000
_cell_angle_alpha   85.04800000
_cell_angle_beta   74.85300000
_cell_angle_gamma   85.35410000
_symmetry_Int_Tables_number   1
_chemical_formula_structural   ZnH4C7(NO2)4
_chemical_formula_sum   'Zn2 H8 C14 N8 O16'
_cell_volume   965.59517822
_cell_formula_units_Z   2
loop_
 _symmetry_equiv_pos_site_id
 _symmetry_equiv_pos_as_xyz
  1  'x, y, z'
loop_
 _atom_site_type_symbol
 _atom_site_label
 _atom_site_symmetry_multiplicity
 _atom_site_fract_x
 _atom_site_fract_y
 _atom_site_fract_z
 _atom_site_occupancy
  Zn  Zn0  1  0.69623000  0.50770000  0.47888000  1.0
  Zn  Zn1  1  0.30367000  0.49215000  0.52128000  1.0
  H  H2  1  0.86764000  0.30769000  0.56488000  1.0
  H  H3  1  0.94005000  0.20414000  0.70839000  1.0
  H  H4  1  0.90907000  0.39972000  0.72994000  1.0
  H  H5  1  0.12367000  0.31403000  0.68644000  1.0
  H  H6  1  0.13264000  0.69178000  0.43458000  1.0
  H  H7  1  0.06010000  0.79523000  0.29102000  1.0
  H  H8  1  0.87659000  0.68514000  0.31304000  1.0
  H  H9  1  0.09128000  0.59951000  0.26968000  1.0
  C  C10  1  0.45679000  0.78942000  0.48842000  1.0
  C  C11  1  0.54313000  0.21040000  0.51169000  1.0
  C  C12  1  0.53077000  0.48845000  0.31478000  1.0
  C  C13  1  0.46926000  0.51161000  0.68541000  1.0
  C  C14  1  0.45308000  0.50908000  0.79011000  1.0
  C  C15  1  0.54687000  0.49136000  0.21008000  1.0
  C  C16  1  0.43404000  0.49511000  0.97834000  1.0
  C  C17  1  0.56649000  0.50529000  0.02180000  1.0
  C  C18  1  0.55545000  0.49786000  0.12209000  1.0
  C  C19  1  0.44467000  0.50297000  0.87807000  1.0
  C  C20  1  0.43693000  0.95534000  0.49844000  1.0
  C  C21  1  0.56299000  0.04449000  0.50160000  1.0
  C  C22  1  0.98769000  0.31505000  0.68243000  1.0
  C  C23  1  0.01255000  0.68431000  0.31709000  1.0
  N  N24  1  0.04250000  0.46610000  0.52954000  1.0
  N  N25  1  0.95762000  0.53355000  0.47012000  1.0
  N  N26  1  0.74540000  0.52914000  0.95452000  1.0
  N  N27  1  0.25489000  0.47272000  0.04593000  1.0
  N  N28  1  0.25509000  0.01730000  0.50774000  1.0
  N  N29  1  0.74477000  0.98251000  0.49229000  1.0
  N  N30  1  0.97686000  0.34137000  0.58069000  1.0
  N  N31  1  0.02328000  0.65823000  0.41888000  1.0
  O  O32  1  0.61050000  0.73087000  0.47277000  1.0
  O  O33  1  0.38942000  0.26893000  0.52731000  1.0
  O  O34  1  0.31631000  0.72468000  0.49812000  1.0
  O  O35  1  0.68356000  0.27515000  0.50207000  1.0
  O  O36  1  0.67266000  0.48902000  0.34064000  1.0
  O  O37  1  0.32737000  0.51077000  0.65954000  1.0
  O  O38  1  0.37596000  0.48670000  0.36962000  1.0
  O  O39  1  0.62411000  0.51328000  0.63055000  1.0
  O  O40  1  0.78917000  0.65890000  0.94087000  1.0
  O  O41  1  0.83170000  0.41667000  0.92089000  1.0
  O  O42  1  0.21603000  0.34238000  0.06805000  1.0
  O  O43  1  0.16360000  0.58700000  0.07133000  1.0
  O  O44  1  0.15788000  0.01323000  0.59162000  1.0
  O  O45  1  0.21603000  0.05868000  0.43010000  1.0
  O  O46  1  0.84202000  0.98663000  0.40842000  1.0
  O  O47  1  0.78388000  0.94116000  0.56992000  1.0
