# generated using pymatgen
data_AgH2C2N3
_symmetry_space_group_name_H-M   'P 1'
_cell_length_a   7.82403000
_cell_length_b   8.85362000
_cell_length_c   11.45800000
_cell_angle_alpha   79.94520000
_cell_angle_beta   78.51530000
_cell_angle_gamma   85.13630000
_symmetry_Int_Tables_number   1
_chemical_formula_structural   AgH2C2N3
_chemical_formula_sum   'Ag8 H16 C16 N24'
_cell_volume   764.83915273
_cell_formula_units_Z   8
loop_
 _symmetry_equiv_pos_site_id
 _symmetry_equiv_pos_as_xyz
  1  'x, y, z'
loop_
 _atom_site_type_symbol
 _atom_site_label
 _atom_site_symmetry_multiplicity
 _atom_site_fract_x
 _atom_site_fract_y
 _atom_site_fract_z
 _atom_site_occupancy
  Ag  Ag0  1  0.59155000  0.17952000  0.23699000  1.0
  Ag  Ag1  1  0.40845000  0.82048000  0.76301000  1.0
  Ag  Ag2  1  0.35617000  0.42056000  0.46695000  1.0
  Ag  Ag3  1  0.64383000  0.57944000  0.53305000  1.0
  Ag  Ag4  1  0.81740000  0.89534000  0.74755000  1.0
  Ag  Ag5  1  0.18259000  0.10466000  0.25245000  1.0
  Ag  Ag6  1  0.08309000  0.65757000  0.96752000  1.0
  Ag  Ag7  1  0.91691000  0.34242000  0.03248000  1.0
  H  H8  1  0.82974000  0.96076000  0.44302000  1.0
  H  H9  1  0.17025000  0.03924000  0.55698000  1.0
  H  H10  1  0.53344000  0.20692000  0.70208000  1.0
  H  H11  1  0.46655000  0.79307000  0.29792000  1.0
  H  H12  1  0.18734000  0.69242000  0.24879000  1.0
  H  H13  1  0.81265000  0.30757000  0.75121000  1.0
  H  H14  1  0.37069000  0.36885000  0.01977000  1.0
  H  H15  1  0.62931000  0.63115000  0.98023000  1.0
  H  H16  1  0.99508000  0.67548000  0.51993000  1.0
  H  H17  1  0.00492000  0.32453000  0.48007000  1.0
  H  H18  1  0.29300000  0.43238000  0.76489000  1.0
  H  H19  1  0.70700000  0.56762000  0.23511000  1.0
  H  H20  1  0.61936000  0.12999000  0.94942000  1.0
  H  H21  1  0.38064000  0.87001000  0.05058000  1.0
  H  H22  1  0.86401000  0.84752000  0.20822000  1.0
  H  H23  1  0.13601000  0.15248000  0.79178000  1.0
  C  C24  1  0.73650000  0.04094000  0.48671000  1.0
  C  C25  1  0.26350000  0.95906000  0.51330000  1.0
  C  C26  1  0.58707000  0.16563000  0.61792000  1.0
  C  C27  1  0.41292000  0.83437000  0.38208000  1.0
  C  C28  1  0.25542000  0.59457000  0.21124000  1.0
  C  C29  1  0.74458000  0.40543000  0.78876000  1.0
  C  C30  1  0.34853000  0.43097000  0.09539000  1.0
  C  C31  1  0.65147000  0.56903000  0.90460000  1.0
  C  C32  1  0.04951000  0.63598000  0.60067000  1.0
  C  C33  1  0.95049000  0.36402000  0.39933000  1.0
  C  C34  1  0.19978000  0.51181000  0.72445000  1.0
  C  C35  1  0.80022000  0.48819000  0.27555000  1.0
  C  C36  1  0.69660000  0.03834000  0.99360000  1.0
  C  C37  1  0.30341000  0.96166000  0.00640000  1.0
  C  C38  1  0.82010000  0.89530000  0.12468000  1.0
  C  C39  1  0.17991000  0.10470000  0.87532000  1.0
  N  N40  1  0.62997000  0.13882000  0.42951000  1.0
  N  N41  1  0.37002000  0.86118000  0.57050000  1.0
  N  N42  1  0.53311000  0.21969000  0.51460000  1.0
  N  N43  1  0.46688000  0.78031000  0.48540000  1.0
  N  N44  1  0.71539000  0.05339000  0.60514000  1.0
  N  N45  1  0.28461000  0.94661000  0.39486000  1.0
  N  N46  1  0.35679000  0.49127000  0.26974000  1.0
  N  N47  1  0.64321000  0.50873000  0.73026000  1.0
  N  N48  1  0.41722000  0.38526000  0.19417000  1.0
  N  N49  1  0.58278000  0.61473000  0.80583000  1.0
  N  N50  1  0.24731000  0.56215000  0.10122000  1.0
  N  N51  1  0.75269000  0.43784000  0.89877000  1.0
  N  N52  1  0.00349000  0.69753000  0.70130000  1.0
  N  N53  1  0.99650000  0.30247000  0.29870000  1.0
  N  N54  1  0.10124000  0.61717000  0.78137000  1.0
  N  N55  1  0.89876000  0.38283000  0.21863000  1.0
  N  N56  1  0.17169000  0.51853000  0.61071000  1.0
  N  N57  1  0.82831000  0.48148000  0.38929000  1.0
  N  N58  1  0.78820000  0.92870000  0.93809000  1.0
  N  N59  1  0.21180000  0.07130000  0.06191000  1.0
  N  N60  1  0.86864000  0.83546000  0.02319000  1.0
  N  N61  1  0.13137000  0.16454000  0.97681000  1.0
  N  N62  1  0.71144000  0.02224000  0.11100000  1.0
  N  N63  1  0.28857000  0.97776000  0.88900000  1.0
