# generated using pymatgen
data_ZnH27C32N2O10F
_symmetry_space_group_name_H-M   'P 1'
_cell_length_a   12.06270000
_cell_length_b   12.87690000
_cell_length_c   23.49990000
_cell_angle_alpha   88.20680000
_cell_angle_beta   86.49510000
_cell_angle_gamma   86.42840000
_symmetry_Int_Tables_number   1
_chemical_formula_structural   ZnH27C32N2O10F
_chemical_formula_sum   'Zn2 H54 C64 N4 O20 F2'
_cell_volume   3634.95557142
_cell_formula_units_Z   2
loop_
 _symmetry_equiv_pos_site_id
 _symmetry_equiv_pos_as_xyz
  1  'x, y, z'
loop_
 _atom_site_type_symbol
 _atom_site_label
 _atom_site_symmetry_multiplicity
 _atom_site_fract_x
 _atom_site_fract_y
 _atom_site_fract_z
 _atom_site_occupancy
  Zn  Zn0  1  0.62844000  0.50619000  0.50401000  1.0
  Zn  Zn1  1  0.38421000  0.48158000  0.50106000  1.0
  H  H2  1  0.69382000  0.70582000  0.93405000  1.0
  H  H3  1  0.35056000  0.66047000  0.66731000  1.0
  H  H4  1  0.42834000  0.69621000  0.23368000  1.0
  H  H5  1  0.56475000  0.43235000  0.80100000  1.0
  H  H6  1  0.38818000  0.18613000  0.50438000  1.0
  H  H7  1  0.63525000  0.80614000  0.49800000  1.0
  H  H8  1  0.68685000  0.58001000  0.62481000  1.0
  H  H9  1  0.81115000  0.64885000  0.61272000  1.0
  H  H10  1  0.89251000  0.55773000  0.69769000  1.0
  H  H11  1  0.75992000  0.61816000  0.71899000  1.0
  H  H12  1  0.77350000  0.48198000  0.70772000  1.0
  H  H13  1  0.22011000  0.46818000  0.07088000  1.0
  H  H14  1  0.26561000  0.67774000  0.41071000  1.0
  H  H15  1  0.11883000  0.68374000  0.42360000  1.0
  H  H16  1  0.09534000  0.61772000  0.32517000  1.0
  H  H17  1  0.17869000  0.72748000  0.31969000  1.0
  H  H18  1  0.24190000  0.59942000  0.31390000  1.0
  H  H19  1  0.82509000  0.58246000  0.34168000  1.0
  H  H20  1  0.88519000  0.69945000  0.36046000  1.0
  H  H21  1  0.70099000  0.79838000  0.35561000  1.0
  H  H22  1  0.73447000  0.73306000  0.29045000  1.0
  H  H23  1  0.63735000  0.68153000  0.34240000  1.0
  H  H24  1  0.01887000  0.41689000  0.61557000  1.0
  H  H25  1  0.13713000  0.30476000  0.65432000  1.0
  H  H26  1  0.19719000  0.42387000  0.66941000  1.0
  H  H27  1  0.38760000  0.32774000  0.66566000  1.0
  H  H28  1  0.29549000  0.27394000  0.71936000  1.0
  H  H29  1  0.32511000  0.21007000  0.65345000  1.0
  H  H30  1  0.80780000  0.14927000  0.42733000  1.0
  H  H31  1  0.90766000  0.09758000  0.47541000  1.0
  H  H32  1  0.93330000  0.28294000  0.50496000  1.0
  H  H33  1  0.97406000  0.26184000  0.43192000  1.0
  H  H34  1  0.84329000  0.32932000  0.45129000  1.0
  H  H35  1  0.99162000  0.58351000  0.39539000  1.0
  H  H36  1  0.11982000  0.89201000  0.54594000  1.0
  H  H37  1  0.23286000  0.85501000  0.58926000  1.0
  H  H38  1  0.20188000  0.66653000  0.57723000  1.0
  H  H39  1  0.07720000  0.73373000  0.60576000  1.0
  H  H40  1  0.09059000  0.70170000  0.53260000  1.0
  H  H41  1  0.28485000  0.14202000  0.57042000  1.0
  H  H42  1  0.22458000  0.02591000  0.59697000  1.0
  H  H43  1  0.04913000  0.08030000  0.54712000  1.0
  H  H44  1  0.08068000  0.17532000  0.59582000  1.0
  H  H45  1  0.11094000  0.19629000  0.52150000  1.0
  H  H46  1  0.70846000  0.69531000  0.04114000  1.0
  H  H47  1  0.81627000  0.97156000  0.41738000  1.0
  H  H48  1  0.75131000  0.85379000  0.43652000  1.0
  H  H49  1  0.91271000  0.79407000  0.49446000  1.0
  H  H50  1  0.95787000  0.82071000  0.42225000  1.0
  H  H51  1  0.97875000  0.91145000  0.47540000  1.0
  H  H52  1  0.20635000  0.47702000  0.96362000  1.0
  H  H53  1  0.56768000  0.38560000  0.20062000  1.0
  H  H54  1  0.33805000  0.69854000  0.77176000  1.0
  H  H55  1  0.58208000  0.35207000  0.30529000  1.0
  C  C56  1  0.46976000  0.69033000  0.49658000  1.0
  C  C57  1  0.52552000  0.46601000  0.71407000  1.0
  C  C58  1  0.46228000  0.62066000  0.24871000  1.0
  C  C59  1  0.51836000  0.48388000  0.77212000  1.0
  C  C60  1  0.49719000  0.54203000  0.21119000  1.0
  C  C61  1  0.45122000  0.56846000  0.79214000  1.0
  C  C62  1  0.56341000  0.18372000  0.50740000  1.0
  C  C63  1  0.45978000  0.80725000  0.49775000  1.0
  C  C64  1  0.35751000  0.97629000  0.50576000  1.0
  C  C65  1  0.66505000  0.01425000  0.50151000  1.0
  C  C66  1  0.35665000  0.86821000  0.50221000  1.0
  C  C67  1  0.55525000  0.30075000  0.50914000  1.0
  C  C68  1  0.66618000  0.12183000  0.50647000  1.0
  C  C69  1  0.55911000  0.85579000  0.49791000  1.0
  C  C70  1  0.46392000  0.13598000  0.50529000  1.0
  C  C71  1  0.51627000  0.48682000  0.39216000  1.0
  C  C72  1  0.47673000  0.51209000  0.61193000  1.0
  C  C73  1  0.56266000  0.96460000  0.50023000  1.0
  C  C74  1  0.45989000  0.02691000  0.50354000  1.0
  C  C75  1  0.05476000  0.44094000  0.57415000  1.0
  C  C76  1  0.95893000  0.56222000  0.43779000  1.0
  C  C77  1  0.16620000  0.42169000  0.55816000  1.0
  C  C78  1  0.54110000  0.44583000  0.23092000  1.0
  C  C79  1  0.84764000  0.58167000  0.45389000  1.0
  C  C80  1  0.14844000  0.50458000  0.46880000  1.0
  C  C81  1  0.86864000  0.51047000  0.54511000  1.0
  C  C82  1  0.03002000  0.51756000  0.47847000  1.0
  C  C83  1  0.98565000  0.48928000  0.53357000  1.0
  C  C84  1  0.35488000  0.54627000  0.88544000  1.0
  C  C85  1  0.56909000  0.60975000  0.11881000  1.0
  C  C86  1  0.53689000  0.63219000  0.87433000  1.0
  C  C87  1  0.38564000  0.52658000  0.12974000  1.0
  C  C88  1  0.53975000  0.63222000  0.93736000  1.0
  C  C89  1  0.39058000  0.63314000  0.75519000  1.0
  C  C90  1  0.37654000  0.53760000  0.06719000  1.0
  C  C91  1  0.45387000  0.58820000  0.97219000  1.0
  C  C92  1  0.46203000  0.58244000  0.03246000  1.0
  C  C93  1  0.36085000  0.54836000  0.94824000  1.0
  C  C94  1  0.55594000  0.62058000  0.05644000  1.0
  C  C95  1  0.62942000  0.67190000  0.96202000  1.0
  C  C96  1  0.28464000  0.50165000  0.04280000  1.0
  C  C97  1  0.63756000  0.66600000  0.02143000  1.0
  C  C98  1  0.27693000  0.50679000  0.98339000  1.0
  C  C99  1  0.77622000  0.57717000  0.63078000  1.0
  C  C100  1  0.54890000  0.42741000  0.28938000  1.0
  C  C101  1  0.80267000  0.55749000  0.69237000  1.0
  C  C102  1  0.18901000  0.64369000  0.39957000  1.0
  C  C103  1  0.17496000  0.64681000  0.33608000  1.0
  C  C104  1  0.80795000  0.65749000  0.36283000  1.0
  C  C105  1  0.71446000  0.72172000  0.33637000  1.0
  C  C106  1  0.21337000  0.34800000  0.64899000  1.0
  C  C107  1  0.31133000  0.28624000  0.67318000  1.0
  C  C108  1  0.84734000  0.16336000  0.46722000  1.0
  C  C109  1  0.90280000  0.26589000  0.46342000  1.0
  C  C110  1  0.18513000  0.83057000  0.55398000  1.0
  C  C111  1  0.39794000  0.61199000  0.69725000  1.0
  C  C112  1  0.13619000  0.72668000  0.56829000  1.0
  C  C113  1  0.22456000  0.08468000  0.56178000  1.0
  C  C114  1  0.10980000  0.13696000  0.55605000  1.0
  C  C115  1  0.80861000  0.90964000  0.45068000  1.0
  C  C116  1  0.92093000  0.85600000  0.46154000  1.0
  C  C117  1  0.51319000  0.50413000  0.32837000  1.0
  C  C118  1  0.46656000  0.52896000  0.67525000  1.0
  C  C119  1  0.47139000  0.59961000  0.30651000  1.0
  N  N120  1  0.44593000  0.58540000  0.85273000  1.0
  N  N121  1  0.48434000  0.55961000  0.15091000  1.0
  N  N122  1  0.80135000  0.54991000  0.50594000  1.0
  N  N123  1  0.21278000  0.45902000  0.50752000  1.0
  O  O124  1  0.56277000  0.65049000  0.51259000  1.0
  O  O125  1  0.64918000  0.64069000  0.14181000  1.0
  O  O126  1  0.60987000  0.66768000  0.84198000  1.0
  O  O127  1  0.31335000  0.48965000  0.16197000  1.0
  O  O128  1  0.82902000  0.48900000  0.59846000  1.0
  O  O129  1  0.20040000  0.53442000  0.41957000  1.0
  O  O130  1  0.77457000  0.63632000  0.42199000  1.0
  O  O131  1  0.24077000  0.36681000  0.58905000  1.0
  O  O132  1  0.76281000  0.16856000  0.51349000  1.0
  O  O133  1  0.25904000  0.81891000  0.50354000  1.0
  O  O134  1  0.25676000  0.03370000  0.50865000  1.0
  O  O135  1  0.45863000  0.34138000  0.52253000  1.0
  O  O136  1  0.76463000  0.95523000  0.50343000  1.0
  O  O137  1  0.39106000  0.63943000  0.48040000  1.0
  O  O138  1  0.64178000  0.35089000  0.49652000  1.0
  O  O139  1  0.60302000  0.51249000  0.41440000  1.0
  O  O140  1  0.38850000  0.53071000  0.58559000  1.0
  O  O141  1  0.42988000  0.45060000  0.41651000  1.0
  O  O142  1  0.57245000  0.48324000  0.59090000  1.0
  O  O143  1  0.27774000  0.51015000  0.86233000  1.0
  F  F144  1  0.43751000  0.67677000  0.34343000  1.0
  F  F145  1  0.59047000  0.38195000  0.69604000  1.0
