# generated using pymatgen
data_GdH6C3(NO)6
_symmetry_space_group_name_H-M   'P 1'
_cell_length_a   8.89048000
_cell_length_b   10.10060000
_cell_length_c   12.76180000
_cell_angle_alpha   89.99980000
_cell_angle_beta   89.99950000
_cell_angle_gamma   73.52500000
_symmetry_Int_Tables_number   1
_chemical_formula_structural   GdH6C3(NO)6
_chemical_formula_sum   'Gd4 H24 C12 N24 O24'
_cell_volume   1098.94856683
_cell_formula_units_Z   4
loop_
 _symmetry_equiv_pos_site_id
 _symmetry_equiv_pos_as_xyz
  1  'x, y, z'
loop_
 _atom_site_type_symbol
 _atom_site_label
 _atom_site_symmetry_multiplicity
 _atom_site_fract_x
 _atom_site_fract_y
 _atom_site_fract_z
 _atom_site_occupancy
  Gd  Gd0  1  0.77591000  0.12946000  0.67782000  1.0
  Gd  Gd1  1  0.27590000  0.12946000  0.32217000  1.0
  Gd  Gd2  1  0.14648000  0.57778000  0.82362000  1.0
  Gd  Gd3  1  0.64647000  0.57779000  0.17639000  1.0
  H  H4  1  0.14923000  0.51502000  0.57783000  1.0
  H  H5  1  0.64924000  0.51502000  0.42218000  1.0
  H  H6  1  0.18535000  0.65830000  0.60521000  1.0
  H  H7  1  0.68534000  0.65830000  0.39480000  1.0
  H  H8  1  0.25281000  0.84463000  0.75757000  1.0
  H  H9  1  0.75280000  0.84464000  0.24244000  1.0
  H  H10  1  0.07646000  0.85450000  0.72696000  1.0
  H  H11  1  0.57645000  0.85451000  0.27304000  1.0
  H  H12  1  0.09942000  0.35733000  0.99134000  1.0
  H  H13  1  0.59942000  0.35734000  0.00867000  1.0
  H  H14  1  0.06021000  0.50340000  0.04278000  1.0
  H  H15  1  0.56021000  0.50340000  0.95723000  1.0
  H  H16  1  0.92054000  0.48259000  0.69088000  1.0
  H  H17  1  0.42054000  0.48259000  0.30913000  1.0
  H  H18  1  0.83776000  0.48730000  0.80032000  1.0
  H  H19  1  0.33775000  0.48732000  0.19968000  1.0
  H  H20  1  0.30834000  0.67566000  0.01158000  1.0
  H  H21  1  0.80834000  0.67565000  0.98841000  1.0
  H  H22  1  0.16813000  0.79420000  0.97292000  1.0
  H  H23  1  0.66814000  0.79420000  0.02709000  1.0
  H  H24  1  0.99953000  0.12145000  0.85908000  1.0
  H  H25  1  0.49953000  0.12146000  0.14092000  1.0
  H  H26  1  0.07565000  0.17340000  0.76033000  1.0
  H  H27  1  0.57564000  0.17341000  0.23966000  1.0
  C  C28  1  0.53724000  0.19304000  0.47982000  1.0
  C  C29  1  0.03722000  0.19306000  0.52018000  1.0
  C  C30  1  0.56189000  0.04285000  0.49563000  1.0
  C  C31  1  0.06189000  0.04286000  0.50435000  1.0
  C  C32  1  0.73193000  0.97172000  0.90479000  1.0
  C  C33  1  0.23194000  0.97173000  0.09521000  1.0
  C  C34  1  0.84447000  0.86393000  0.84233000  1.0
  C  C35  1  0.34445000  0.86396000  0.15767000  1.0
  C  C36  1  0.42431000  0.30837000  0.75408000  1.0
  C  C37  1  0.92431000  0.30838000  0.24593000  1.0
  C  C38  1  0.51503000  0.40632000  0.77922000  1.0
  C  C39  1  0.01502000  0.40633000  0.22079000  1.0
  N  N40  1  0.62113000  0.26792000  0.52553000  1.0
  N  N41  1  0.12111000  0.26793000  0.47446000  1.0
  N  N42  1  0.56658000  0.39501000  0.48513000  1.0
  N  N43  1  0.06656000  0.39503000  0.51486000  1.0
  N  N44  1  0.45189000  0.39563000  0.41861000  1.0
  N  N45  1  0.95188000  0.39564000  0.58139000  1.0
  N  N46  1  0.43197000  0.26984000  0.41352000  1.0
  N  N47  1  0.93196000  0.26985000  0.58648000  1.0
  N  N48  1  0.70625000  0.10527000  0.87903000  1.0
  N  N49  1  0.20625000  0.10528000  0.12096000  1.0
  N  N50  1  0.61068000  0.17646000  0.95331000  1.0
  N  N51  1  0.11068000  0.17647000  0.04669000  1.0
  N  N52  1  0.57689000  0.08786000  0.01961000  1.0
  N  N53  1  0.07687000  0.08787000  0.98039000  1.0
  N  N54  1  0.65263000  0.95874000  0.99187000  1.0
  N  N55  1  0.15263000  0.95875000  0.00813000  1.0
  N  N56  1  0.27080000  0.33288000  0.77249000  1.0
  N  N57  1  0.77080000  0.33289000  0.22751000  1.0
  N  N58  1  0.23759000  0.21711000  0.74272000  1.0
  N  N59  1  0.73758000  0.21711000  0.25728000  1.0
  N  N60  1  0.36578000  0.12517000  0.70911000  1.0
  N  N61  1  0.86578000  0.12517000  0.29087000  1.0
  N  N62  1  0.48505000  0.18151000  0.71545000  1.0
  N  N63  1  0.98505000  0.18151000  0.28455000  1.0
  O  O64  1  0.17596000  0.57215000  0.63504000  1.0
  O  O65  1  0.67596000  0.57217000  0.36496000  1.0
  O  O66  1  0.18036000  0.79019000  0.74479000  1.0
  O  O67  1  0.68036000  0.79020000  0.25521000  1.0
  O  O68  1  0.09593000  0.45488000  0.97636000  1.0
  O  O69  1  0.59594000  0.45488000  0.02364000  1.0
  O  O70  1  0.92186000  0.51555000  0.76591000  1.0
  O  O71  1  0.42185000  0.51556000  0.23410000  1.0
  O  O72  1  0.21201000  0.69033000  0.96990000  1.0
  O  O73  1  0.71201000  0.69033000  0.03010000  1.0
  O  O74  1  0.98558000  0.13692000  0.78169000  1.0
  O  O75  1  0.48557000  0.13694000  0.21830000  1.0
  O  O76  1  0.66005000  0.98537000  0.56493000  1.0
  O  O77  1  0.16004000  0.98538000  0.43508000  1.0
  O  O78  1  0.48171000  0.98882000  0.43521000  1.0
  O  O79  1  0.98170000  0.98884000  0.56479000  1.0
  O  O80  1  0.86907000  0.89930000  0.74985000  1.0
  O  O81  1  0.36907000  0.89932000  0.25016000  1.0
  O  O82  1  0.91591000  0.74940000  0.88475000  1.0
  O  O83  1  0.41590000  0.74940000  0.11525000  1.0
  O  O84  1  0.43706000  0.51786000  0.82517000  1.0
  O  O85  1  0.93706000  0.51787000  0.17483000  1.0
  O  O86  1  0.65967000  0.36991000  0.75759000  1.0
  O  O87  1  0.15967000  0.36992000  0.24241000  1.0
