# generated using pymatgen
data_U3Ag2H12(C8O13)2
_symmetry_space_group_name_H-M   'P 1'
_cell_length_a   8.83233000
_cell_length_b   9.88194000
_cell_length_c   10.34870000
_cell_angle_alpha   112.52100000
_cell_angle_beta   100.50100000
_cell_angle_gamma   110.11700000
_symmetry_Int_Tables_number   1
_chemical_formula_structural   U3Ag2H12(C8O13)2
_chemical_formula_sum   'U3 Ag2 H12 C16 O26'
_cell_volume   730.32216649
_cell_formula_units_Z   1
loop_
 _symmetry_equiv_pos_site_id
 _symmetry_equiv_pos_as_xyz
  1  'x, y, z'
loop_
 _atom_site_type_symbol
 _atom_site_label
 _atom_site_symmetry_multiplicity
 _atom_site_fract_x
 _atom_site_fract_y
 _atom_site_fract_z
 _atom_site_occupancy
  U  U0  1  0.33213000  0.18910000  0.72581000  1.0
  U  U1  1  0.66788000  0.81089000  0.27420000  1.0
  U  U2  1  0.00001000  0.50000000  0.50001000  1.0
  Ag  Ag3  1  0.35549000  0.84931000  0.90056000  1.0
  Ag  Ag4  1  0.64450000  0.15068000  0.09944000  1.0
  H  H5  1  0.21260000  0.85046000  0.46393000  1.0
  H  H6  1  0.78741000  0.14955000  0.53607000  1.0
  H  H7  1  0.11621000  0.93916000  0.39818000  1.0
  H  H8  1  0.88378000  0.06083000  0.60183000  1.0
  H  H9  1  0.52460000  0.49742000  0.62412000  1.0
  H  H10  1  0.47540000  0.50258000  0.37588000  1.0
  H  H11  1  0.70735000  0.79643000  0.62143000  1.0
  H  H12  1  0.29265000  0.20356000  0.37856000  1.0
  H  H13  1  0.95329000  0.87899000  0.90870000  1.0
  H  H14  1  0.04670000  0.12101000  0.09130000  1.0
  H  H15  1  0.88239000  0.60866000  0.84227000  1.0
  H  H16  1  0.11761000  0.39135000  0.15773000  1.0
  C  C17  1  0.65604000  0.50793000  0.64875000  1.0
  C  C18  1  0.34396000  0.49206000  0.35125000  1.0
  C  C19  1  0.80344000  0.76452000  0.66836000  1.0
  C  C20  1  0.19656000  0.23547000  0.33164000  1.0
  C  C21  1  0.81904000  0.79725000  0.83124000  1.0
  C  C22  1  0.18096000  0.20276000  0.16876000  1.0
  C  C23  1  0.76431000  0.62401000  0.81669000  1.0
  C  C24  1  0.23568000  0.37599000  0.18331000  1.0
  C  C25  1  0.65010000  0.33976000  0.59191000  1.0
  C  C26  1  0.34993000  0.66026000  0.40809000  1.0
  C  C27  1  0.97673000  0.85646000  0.66201000  1.0
  C  C28  1  0.02328000  0.14352000  0.33799000  1.0
  C  C29  1  0.70156000  0.87217000  0.88313000  1.0
  C  C30  1  0.29844000  0.12782000  0.11687000  1.0
  C  C31  1  0.67712000  0.59141000  0.92256000  1.0
  C  C32  1  0.32289000  0.40861000  0.07745000  1.0
  O  O33  1  0.43797000  0.09386000  0.80063000  1.0
  O  O34  1  0.56202000  0.90615000  0.19937000  1.0
  O  O35  1  0.22059000  0.27407000  0.64151000  1.0
  O  O36  1  0.77941000  0.72593000  0.35849000  1.0
  O  O37  1  0.12746000  0.54841000  0.68394000  1.0
  O  O38  1  0.87255000  0.45159000  0.31606000  1.0
  O  O39  1  0.53434000  0.22643000  0.59692000  1.0
  O  O40  1  0.46565000  0.77355000  0.40308000  1.0
  O  O41  1  0.76992000  0.32225000  0.54478000  1.0
  O  O42  1  0.23008000  0.67775000  0.45522000  1.0
  O  O43  1  0.02965000  0.00602000  0.69377000  1.0
  O  O44  1  0.97035000  0.99398000  0.30623000  1.0
  O  O45  1  0.06452000  0.77849000  0.63131000  1.0
  O  O46  1  0.93548000  0.22151000  0.36869000  1.0
  O  O47  1  0.54037000  0.77522000  0.81941000  1.0
  O  O48  1  0.45963000  0.22478000  0.18059000  1.0
  O  O49  1  0.77642000  0.02273000  0.98293000  1.0
  O  O50  1  0.22358000  0.97727000  0.01707000  1.0
  O  O51  1  0.56450000  0.44558000  0.87740000  1.0
  O  O52  1  0.43549000  0.55441000  0.12260000  1.0
  O  O53  1  0.72839000  0.70946000  0.05291000  1.0
  O  O54  1  0.27160000  0.29053000  0.94708000  1.0
  O  O55  1  0.74853000  0.59012000  0.57834000  1.0
  O  O56  1  0.25147000  0.40987000  0.42167000  1.0
  O  O57  1  0.21003000  0.95571000  0.48010000  1.0
  O  O58  1  0.78997000  0.04429000  0.51990000  1.0
