# generated using pymatgen
data_Al2H18C33(NO8)2
_symmetry_space_group_name_H-M   'P 1'
_cell_length_a   6.58046000
_cell_length_b   20.73260000
_cell_length_c   21.65840000
_cell_angle_alpha   89.97890000
_cell_angle_beta   88.00570000
_cell_angle_gamma   87.58590000
_symmetry_Int_Tables_number   1
_chemical_formula_structural   Al2H18C33(NO8)2
_chemical_formula_sum   'Al4 H36 C66 N4 O32'
_cell_volume   2950.44406717
_cell_formula_units_Z   2
loop_
 _symmetry_equiv_pos_site_id
 _symmetry_equiv_pos_as_xyz
  1  'x, y, z'
loop_
 _atom_site_type_symbol
 _atom_site_label
 _atom_site_symmetry_multiplicity
 _atom_site_fract_x
 _atom_site_fract_y
 _atom_site_fract_z
 _atom_site_occupancy
  Al  Al0  1  0.95237000  0.69110000  0.49779000  1.0
  Al  Al1  1  0.04887000  0.30553000  0.99938000  1.0
  Al  Al2  1  0.45192000  0.69155000  0.49761000  1.0
  Al  Al3  1  0.54746000  0.30399000  0.99862000  1.0
  H  H4  1  0.23965000  0.67207000  0.80312000  1.0
  H  H5  1  0.56641000  0.33652000  0.29439000  1.0
  H  H6  1  0.25786000  0.40352000  0.80655000  1.0
  H  H7  1  0.77584000  0.59225000  0.30706000  1.0
  H  H8  1  0.28944000  0.39815000  0.71893000  1.0
  H  H9  1  0.84460000  0.59554000  0.22181000  1.0
  H  H10  1  0.49399000  0.86739000  0.57455000  1.0
  H  H11  1  0.52270000  0.12286000  0.08676000  1.0
  H  H12  1  0.63746000  0.17569000  0.85751000  1.0
  H  H13  1  0.37701000  0.82763000  0.36791000  1.0
  H  H14  1  0.87531000  0.83599000  0.63458000  1.0
  H  H15  1  0.09945000  0.18632000  0.14391000  1.0
  H  H16  1  0.31022000  0.51823000  0.96896000  1.0
  H  H17  1  0.67059000  0.47489000  0.46665000  1.0
  H  H18  1  0.49953000  0.96249000  0.64429000  1.0
  H  H19  1  0.54608000  0.03197000  0.16293000  1.0
  H  H20  1  0.65360000  0.08808000  0.77703000  1.0
  H  H21  1  0.36131000  0.92614000  0.29949000  1.0
  H  H22  1  0.01591000  0.05756000  0.81089000  1.0
  H  H23  1  0.99986000  0.95071000  0.32278000  1.0
  H  H24  1  0.60933000  0.00140000  0.72185000  1.0
  H  H25  1  0.39161000  0.03636000  0.25674000  1.0
  H  H26  1  0.00152000  0.14548000  0.89147000  1.0
  H  H27  1  0.01345000  0.85322000  0.39256000  1.0
  H  H28  1  0.22726000  0.67211000  0.99646000  1.0
  H  H29  1  0.65469000  0.32077000  0.48838000  1.0
  H  H30  1  0.20049000  0.48961000  0.54395000  1.0
  H  H31  1  0.89705000  0.50463000  0.04472000  1.0
  H  H32  1  0.25744000  0.39007000  0.60675000  1.0
  H  H33  1  0.91518000  0.60299000  0.11007000  1.0
  H  H34  1  0.95820000  0.72373000  0.63932000  1.0
  H  H35  1  0.44972000  0.24849000  0.18000000  1.0
  H  H36  1  0.69210000  0.66776000  0.57574000  1.0
  H  H37  1  0.28868000  0.32452000  0.07945000  1.0
  H  H38  1  0.21205000  0.65495000  0.42485000  1.0
  H  H39  1  0.80479000  0.33601000  0.92390000  1.0
  C  C40  1  0.71190000  0.59844000  0.42966000  1.0
  C  C41  1  0.30293000  0.39521000  0.92838000  1.0
  C  C42  1  0.70845000  0.77634000  0.42347000  1.0
  C  C43  1  0.30558000  0.21919000  0.92452000  1.0
  C  C44  1  0.19470000  0.78607000  0.56231000  1.0
  C  C45  1  0.79451000  0.21627000  0.06882000  1.0
  C  C46  1  0.19343000  0.60911000  0.57681000  1.0
  C  C47  1  0.78603000  0.39066000  0.07401000  1.0
  C  C48  1  0.27876000  0.57197000  0.88462000  1.0
  C  C49  1  0.66859000  0.42472000  0.37982000  1.0
  C  C50  1  0.28917000  0.45523000  0.89023000  1.0
  C  C51  1  0.71880000  0.53945000  0.38969000  1.0
  C  C52  1  0.21370000  0.49314000  0.59387000  1.0
  C  C53  1  0.84535000  0.50380000  0.09303000  1.0
  C  C54  1  0.24496000  0.43721000  0.62923000  1.0
  C  C55  1  0.86033000  0.55844000  0.13009000  1.0
  C  C56  1  0.26195000  0.44208000  0.69245000  1.0
  C  C57  1  0.81744000  0.55413000  0.19283000  1.0
  C  C58  1  0.24738000  0.50252000  0.72281000  1.0
  C  C59  1  0.74656000  0.49694000  0.21996000  1.0
  C  C60  1  0.22031000  0.56007000  0.68679000  1.0
  C  C61  1  0.70664000  0.44330000  0.18090000  1.0
  C  C62  1  0.26064000  0.50688000  0.78967000  1.0
  C  C63  1  0.72230000  0.49163000  0.28688000  1.0
  C  C64  1  0.26382000  0.56866000  0.81887000  1.0
  C  C65  1  0.67583000  0.43091000  0.31384000  1.0
  C  C66  1  0.24051000  0.62479000  0.78138000  1.0
  C  C67  1  0.62283000  0.38032000  0.27361000  1.0
  C  C68  1  0.21199000  0.62092000  0.71916000  1.0
  C  C69  1  0.62235000  0.38731000  0.21053000  1.0
  C  C70  1  0.26823000  0.45117000  0.82699000  1.0
  C  C71  1  0.74479000  0.54494000  0.32616000  1.0
  C  C72  1  0.29527000  0.51559000  0.91914000  1.0
  C  C73  1  0.68489000  0.47912000  0.41661000  1.0
  C  C74  1  0.20539000  0.55370000  0.62151000  1.0
  C  C75  1  0.77006000  0.44711000  0.11736000  1.0
  C  C76  1  0.31819000  0.16579000  0.87830000  1.0
  C  C77  1  0.69678000  0.83453000  0.38312000  1.0
  C  C78  1  0.14248000  0.13233000  0.86571000  1.0
  C  C79  1  0.87272000  0.86943000  0.37127000  1.0
  C  C80  1  0.14973000  0.08407000  0.82144000  1.0
  C  C81  1  0.86595000  0.92302000  0.33317000  1.0
  C  C82  1  0.33459000  0.06877000  0.78891000  1.0
  C  C83  1  0.68101000  0.94274000  0.30680000  1.0
  C  C84  1  0.51150000  0.10102000  0.80231000  1.0
  C  C85  1  0.50302000  0.90961000  0.32019000  1.0
  C  C86  1  0.50286000  0.14949000  0.84682000  1.0
  C  C87  1  0.51184000  0.85511000  0.35780000  1.0
  C  C88  1  0.36478000  0.93413000  0.64283000  1.0
  C  C89  1  0.66388000  0.06724000  0.15922000  1.0
  C  C90  1  0.36106000  0.88190000  0.60335000  1.0
  C  C91  1  0.65213000  0.11687000  0.11657000  1.0
  C  C92  1  0.19428000  0.95038000  0.68170000  1.0
  C  C93  1  0.82966000  0.06070000  0.19846000  1.0
  C  C94  1  0.18655000  0.84529000  0.60107000  1.0
  C  C95  1  0.80792000  0.16074000  0.11220000  1.0
  C  C96  1  0.01258000  0.86344000  0.63679000  1.0
  C  C97  1  0.97781000  0.15257000  0.14875000  1.0
  C  C98  1  0.01362000  0.91642000  0.67642000  1.0
  C  C99  1  0.99546000  0.10217000  0.19123000  1.0
  C  C100  1  0.82003000  0.93372000  0.71259000  1.0
  C  C101  1  0.19324000  0.09764000  0.22402000  1.0
  C  C102  1  0.27844000  0.63475000  0.91799000  1.0
  C  C103  1  0.64023000  0.36156000  0.41104000  1.0
  C  C104  1  0.16266000  0.68394000  0.68854000  1.0
  C  C105  1  0.49102000  0.33931000  0.18103000  1.0
  N  N106  1  0.35436000  0.02149000  0.74180000  1.0
  N  N107  1  0.66535000  0.99561000  0.26543000  1.0
  N  N108  1  0.18758000  0.99747000  0.72800000  1.0
  N  N109  1  0.83635000  0.01196000  0.24311000  1.0
  O  O110  1  0.55088000  0.74305000  0.43005000  1.0
  O  O111  1  0.46639000  0.24973000  0.93299000  1.0
  O  O112  1  0.87183000  0.63028000  0.43410000  1.0
  O  O113  1  0.14317000  0.36283000  0.93380000  1.0
  O  O114  1  0.02804000  0.61798000  0.54857000  1.0
  O  O115  1  0.96038000  0.38052000  0.04768000  1.0
  O  O116  1  0.87764000  0.76346000  0.44852000  1.0
  O  O117  1  0.13311000  0.23132000  0.95126000  1.0
  O  O118  1  0.03404000  0.75332000  0.55892000  1.0
  O  O119  1  0.95196000  0.24925000  0.06189000  1.0
  O  O120  1  0.53872000  0.61228000  0.45560000  1.0
  O  O121  1  0.47344000  0.38154000  0.95198000  1.0
  O  O122  1  0.69784000  0.69218000  0.53743000  1.0
  O  O123  1  0.29419000  0.30594000  0.03761000  1.0
  O  O124  1  0.36385000  0.77066000  0.53532000  1.0
  O  O125  1  0.62636000  0.22730000  0.04262000  1.0
  O  O126  1  0.35346000  0.64092000  0.56791000  1.0
  O  O127  1  0.63023000  0.35807000  0.06562000  1.0
  O  O128  1  0.20704000  0.68647000  0.45805000  1.0
  O  O129  1  0.80253000  0.30740000  0.95935000  1.0
  O  O130  1  0.72478000  0.89378000  0.74181000  1.0
  O  O131  1  0.75558000  0.99562000  0.70469000  1.0
  O  O132  1  0.30442000  0.14359000  0.22703000  1.0
  O  O133  1  0.24513000  0.03827000  0.24515000  1.0
  O  O134  1  0.32538000  0.68687000  0.89670000  1.0
  O  O135  1  0.21731000  0.62881000  0.97902000  1.0
  O  O136  1  0.59171000  0.31108000  0.38748000  1.0
  O  O137  1  0.67721000  0.36438000  0.47296000  1.0
  O  O138  1  0.27480000  0.72932000  0.68579000  1.0
  O  O139  1  0.97289000  0.68508000  0.66597000  1.0
  O  O140  1  0.32741000  0.35456000  0.15852000  1.0
  O  O141  1  0.55794000  0.27768000  0.19005000  1.0
