# generated using pymatgen
data_ZnH14C27S2N(O5F)2
_symmetry_space_group_name_H-M   'P 1'
_cell_length_a   14.86240000
_cell_length_b   18.60160000
_cell_length_c   19.61650000
_cell_angle_alpha   88.48380000
_cell_angle_beta   87.50710000
_cell_angle_gamma   86.14850000
_symmetry_Int_Tables_number   1
_chemical_formula_structural   ZnH14C27S2N(O5F)2
_chemical_formula_sum   'Zn2 H28 C54 S4 N2 O20 F4'
_cell_volume   5404.38756389
_cell_formula_units_Z   2
loop_
 _symmetry_equiv_pos_site_id
 _symmetry_equiv_pos_as_xyz
  1  'x, y, z'
loop_
 _atom_site_type_symbol
 _atom_site_label
 _atom_site_symmetry_multiplicity
 _atom_site_fract_x
 _atom_site_fract_y
 _atom_site_fract_z
 _atom_site_occupancy
  Zn  Zn0  1  0.48075000  0.50277000  0.39555000  1.0
  Zn  Zn1  1  0.49899000  0.51404000  0.55646000  1.0
  H  H2  1  0.25975000  0.56644000  0.57952000  1.0
  H  H3  1  0.97931000  0.67089000  0.67364000  1.0
  H  H4  1  0.86281000  0.42828000  0.44395000  1.0
  H  H5  1  0.14115000  0.64028000  0.64478000  1.0
  H  H6  1  0.44011000  0.70279000  0.52818000  1.0
  H  H7  1  0.54924000  0.29385000  0.37647000  1.0
  H  H8  1  0.58188000  0.29327000  0.59279000  1.0
  H  H9  1  0.66538000  0.69726000  0.38308000  1.0
  H  H10  1  0.45766000  0.83216000  0.54717000  1.0
  H  H11  1  0.55596000  0.16029000  0.37897000  1.0
  H  H12  1  0.59173000  0.15934000  0.59605000  1.0
  H  H13  1  0.74434000  0.49527000  0.51492000  1.0
  H  H14  1  0.69017000  0.82461000  0.40715000  1.0
  H  H15  1  0.64120000  0.93121000  0.38215000  1.0
  H  H16  1  0.51470000  0.05697000  0.58812000  1.0
  H  H17  1  0.64419000  0.06241000  0.38740000  1.0
  H  H18  1  0.51754000  0.92495000  0.58496000  1.0
  H  H19  1  0.23415000  0.62846000  0.21959000  1.0
  H  H20  1  0.63994000  0.27687000  0.75950000  1.0
  H  H21  1  0.68182000  0.33824000  0.22599000  1.0
  H  H22  1  0.58905000  0.63512000  0.67143000  1.0
  H  H23  1  0.42346000  0.33607000  0.06204000  1.0
  H  H24  1  0.41375000  0.57185000  0.93637000  1.0
  H  H25  1  0.40039000  0.56865000  0.06135000  1.0
  H  H26  1  0.43275000  0.33919000  0.93622000  1.0
  H  H27  1  0.18567000  0.42493000  0.42428000  1.0
  H  H28  1  0.81753000  0.64931000  0.65929000  1.0
  H  H29  1  0.02457000  0.40159000  0.41165000  1.0
  C  C30  1  0.55446000  0.38241000  0.48165000  1.0
  C  C31  1  0.56361000  0.18900000  0.42592000  1.0
  C  C32  1  0.58141000  0.18851000  0.54772000  1.0
  C  C33  1  0.63357000  0.79891000  0.43242000  1.0
  C  C34  1  0.57372000  0.83890000  0.47705000  1.0
  C  C35  1  0.57486000  0.14970000  0.48768000  1.0
  C  C36  1  0.55000000  0.69306000  0.45305000  1.0
  C  C37  1  0.56484000  0.30196000  0.48444000  1.0
  C  C38  1  0.61503000  0.95819000  0.42825000  1.0
  C  C39  1  0.54440000  0.02949000  0.54327000  1.0
  C  C40  1  0.61515000  0.03266000  0.43068000  1.0
  C  C41  1  0.52892000  0.62025000  0.43421000  1.0
  C  C42  1  0.54479000  0.95476000  0.54101000  1.0
  C  C43  1  0.57871000  0.07028000  0.48784000  1.0
  C  C44  1  0.57912000  0.91735000  0.48306000  1.0
  C  C45  1  0.38385000  0.51466000  0.25355000  1.0
  C  C46  1  0.55445000  0.43251000  0.75641000  1.0
  C  C47  1  0.52424000  0.45450000  0.24017000  1.0
  C  C48  1  0.44938000  0.52806000  0.74360000  1.0
  C  C49  1  0.36224000  0.49611000  0.18788000  1.0
  C  C50  1  0.52127000  0.41762000  0.82263000  1.0
  C  C51  1  0.50372000  0.43288000  0.17513000  1.0
  C  C52  1  0.91518000  0.45564000  0.46830000  1.0
  C  C53  1  0.41367000  0.51601000  0.80976000  1.0
  C  C54  1  0.42310000  0.45633000  0.14489000  1.0
  C  C55  1  0.45052000  0.46086000  0.85293000  1.0
  C  C56  1  0.67531000  0.58643000  0.60718000  1.0
  C  C57  1  0.32927000  0.47856000  0.48365000  1.0
  C  C58  1  0.42034000  0.38780000  0.03452000  1.0
  C  C59  1  0.41396000  0.51996000  0.96328000  1.0
  C  C60  1  0.40633000  0.51818000  0.03400000  1.0
  C  C61  1  0.42609000  0.38966000  0.96336000  1.0
  C  C62  1  0.42662000  0.45570000  0.92683000  1.0
  C  C63  1  0.08863000  0.61418000  0.61929000  1.0
  C  C64  1  0.41269000  0.45212000  0.07044000  1.0
  C  C65  1  0.20695000  0.54275000  0.55231000  1.0
  C  C66  1  0.79693000  0.52316000  0.53827000  1.0
  C  C67  1  0.23102000  0.49405000  0.50032000  1.0
  C  C68  1  0.77236000  0.57372000  0.58851000  1.0
  C  C69  1  0.16528000  0.46198000  0.46511000  1.0
  C  C70  1  0.83807000  0.60996000  0.62048000  1.0
  C  C71  1  0.07351000  0.47615000  0.48276000  1.0
  C  C72  1  0.92990000  0.59567000  0.60310000  1.0
  C  C73  1  0.04809000  0.52735000  0.53446000  1.0
  C  C74  1  0.49415000  0.73042000  0.50158000  1.0
  C  C75  1  0.95543000  0.54361000  0.55212000  1.0
  C  C76  1  0.11591000  0.56176000  0.56873000  1.0
  C  C77  1  0.88778000  0.50745000  0.51929000  1.0
  C  C78  1  0.00421000  0.44097000  0.45060000  1.0
  C  C79  1  0.99944000  0.63076000  0.63531000  1.0
  C  C80  1  0.55887000  0.26375000  0.42425000  1.0
  C  C81  1  0.57655000  0.26358000  0.54621000  1.0
  C  C82  1  0.62099000  0.72739000  0.41940000  1.0
  C  C83  1  0.50520000  0.80269000  0.51253000  1.0
  S  S84  1  0.30546000  0.57629000  0.30101000  1.0
  S  S85  1  0.65629000  0.38454000  0.72353000  1.0
  S  S86  1  0.64213000  0.44257000  0.26274000  1.0
  S  S87  1  0.41590000  0.60612000  0.69027000  1.0
  N  N88  1  0.46403000  0.49379000  0.27903000  1.0
  N  N89  1  0.51883000  0.48623000  0.71839000  1.0
  O  O90  1  0.54046000  0.41041000  0.42240000  1.0
  O  O91  1  0.35517000  0.60901000  0.35102000  1.0
  O  O92  1  0.28902000  0.63828000  0.24276000  1.0
  O  O93  1  0.67527000  0.40986000  0.65564000  1.0
  O  O94  1  0.72097000  0.38264000  0.77619000  1.0
  O  O95  1  0.62278000  0.30368000  0.71789000  1.0
  O  O96  1  0.69293000  0.46571000  0.20304000  1.0
  O  O97  1  0.65255000  0.47079000  0.32830000  1.0
  O  O98  1  0.65602000  0.35604000  0.26970000  1.0
  O  O99  1  0.41852000  0.57698000  0.62086000  1.0
  O  O100  1  0.32728000  0.63383000  0.71320000  1.0
  O  O101  1  0.47694000  0.58346000  0.47461000  1.0
  O  O102  1  0.48908000  0.65396000  0.70016000  1.0
  O  O103  1  0.55515000  0.59394000  0.37707000  1.0
  O  O104  1  0.55983000  0.41666000  0.53649000  1.0
  O  O105  1  0.61716000  0.55996000  0.57341000  1.0
  O  O106  1  0.38004000  0.47129000  0.53378000  1.0
  O  O107  1  0.35471000  0.47519000  0.42011000  1.0
  O  O108  1  0.65672000  0.62726000  0.66074000  1.0
  O  O109  1  0.22244000  0.54244000  0.31382000  1.0
  F  F110  1  0.28167000  0.51935000  0.16320000  1.0
  F  F111  1  0.56071000  0.36214000  0.85926000  1.0
  F  F112  1  0.56539000  0.39230000  0.13806000  1.0
  F  F113  1  0.34353000  0.55842000  0.83458000  1.0
