# generated using pymatgen
data_Zn2P2H16C13(NO3)2
_symmetry_space_group_name_H-M   'P 1'
_cell_length_a   9.42277000
_cell_length_b   10.01270000
_cell_length_c   23.82090000
_cell_angle_alpha   90.00010000
_cell_angle_beta   90.00000000
_cell_angle_gamma   89.99990000
_symmetry_Int_Tables_number   1
_chemical_formula_structural   Zn2P2H16C13(NO3)2
_chemical_formula_sum   'Zn8 P8 H64 C52 N8 O24'
_cell_volume   2247.43924647
_cell_formula_units_Z   4
loop_
 _symmetry_equiv_pos_site_id
 _symmetry_equiv_pos_as_xyz
  1  'x, y, z'
loop_
 _atom_site_type_symbol
 _atom_site_label
 _atom_site_symmetry_multiplicity
 _atom_site_fract_x
 _atom_site_fract_y
 _atom_site_fract_z
 _atom_site_occupancy
  Zn  Zn0  1  0.82558000  0.62746000  0.48710000  1.0
  Zn  Zn1  1  0.32558000  0.87254000  0.51290000  1.0
  Zn  Zn2  1  0.17442000  0.37254000  0.98710000  1.0
  Zn  Zn3  1  0.67442000  0.12746000  0.01290000  1.0
  Zn  Zn4  1  0.17442000  0.37254000  0.51290000  1.0
  Zn  Zn5  1  0.67442000  0.12746000  0.48710000  1.0
  Zn  Zn6  1  0.82558000  0.62746000  0.01290000  1.0
  Zn  Zn7  1  0.32558000  0.87254000  0.98710000  1.0
  P  P8  1  0.11484000  0.65234000  0.56353000  1.0
  P  P9  1  0.61484000  0.84766000  0.43647000  1.0
  P  P10  1  0.88516000  0.34766000  0.06353000  1.0
  P  P11  1  0.38516000  0.15234000  0.93647000  1.0
  P  P12  1  0.88516000  0.34766000  0.43647000  1.0
  P  P13  1  0.38516000  0.15234000  0.56353000  1.0
  P  P14  1  0.11484000  0.65234000  0.93647000  1.0
  P  P15  1  0.61484000  0.84766000  0.06353000  1.0
  H  H16  1  0.06727000  0.70034000  0.61590000  1.0
  H  H17  1  0.52728000  0.63808000  0.53478000  1.0
  H  H18  1  0.40046000  0.53932000  0.61610000  1.0
  H  H19  1  0.78617000  0.32339000  0.65556000  1.0
  H  H20  1  0.89743000  0.43075000  0.57272000  1.0
  H  H21  1  0.40168000  0.38358000  0.69529000  1.0
  H  H22  1  0.53596000  0.25994000  0.69801000  1.0
  H  H23  1  0.56727000  0.79966000  0.38410000  1.0
  H  H24  1  0.02728000  0.86192000  0.46522000  1.0
  H  H25  1  0.90046000  0.96068000  0.38390000  1.0
  H  H26  1  0.28617000  0.17660000  0.34444000  1.0
  H  H27  1  0.39743000  0.06925000  0.42727000  1.0
  H  H28  1  0.90168000  0.11642000  0.30471000  1.0
  H  H29  1  0.03596000  0.24006000  0.30199000  1.0
  H  H30  1  0.93273000  0.29966000  0.11590000  1.0
  H  H31  1  0.47272000  0.36192000  0.03478000  1.0
  H  H32  1  0.59954000  0.46068000  0.11610000  1.0
  H  H33  1  0.21383000  0.67661000  0.15556000  1.0
  H  H34  1  0.10257000  0.56925000  0.07273000  1.0
  H  H35  1  0.59832000  0.61642000  0.19529000  1.0
  H  H36  1  0.46405000  0.74006000  0.19801000  1.0
  H  H37  1  0.43273000  0.20034000  0.88410000  1.0
  H  H38  1  0.97272000  0.13808000  0.96522000  1.0
  H  H39  1  0.09954000  0.03932000  0.88390000  1.0
  H  H40  1  0.71383000  0.82339000  0.84444000  1.0
  H  H41  1  0.60257000  0.93075000  0.92727000  1.0
  H  H42  1  0.09832000  0.88358000  0.80471000  1.0
  H  H43  1  0.96405000  0.75994000  0.80199000  1.0
  H  H44  1  0.93273000  0.29966000  0.38410000  1.0
  H  H45  1  0.47272000  0.36192000  0.46522000  1.0
  H  H46  1  0.59954000  0.46068000  0.38390000  1.0
  H  H47  1  0.21383000  0.67660000  0.34444000  1.0
  H  H48  1  0.10257000  0.56925000  0.42727000  1.0
  H  H49  1  0.59832000  0.61642000  0.30471000  1.0
  H  H50  1  0.46404000  0.74006000  0.30199000  1.0
  H  H51  1  0.43273000  0.20034000  0.61590000  1.0
  H  H52  1  0.97272000  0.13808000  0.53478000  1.0
  H  H53  1  0.09954000  0.03932000  0.61610000  1.0
  H  H54  1  0.71383000  0.82339000  0.65556000  1.0
  H  H55  1  0.60257000  0.93075000  0.57272000  1.0
  H  H56  1  0.09832000  0.88358000  0.69529000  1.0
  H  H57  1  0.96405000  0.75994000  0.69801000  1.0
  H  H58  1  0.06727000  0.70034000  0.88410000  1.0
  H  H59  1  0.52728000  0.63808000  0.96522000  1.0
  H  H60  1  0.40046000  0.53932000  0.88390000  1.0
  H  H61  1  0.78617000  0.32340000  0.84444000  1.0
  H  H62  1  0.89743000  0.43075000  0.92727000  1.0
  H  H63  1  0.40168000  0.38358000  0.80471000  1.0
  H  H64  1  0.53596000  0.25994000  0.80199000  1.0
  H  H65  1  0.56727000  0.79966000  0.11590000  1.0
  H  H66  1  0.02728000  0.86192000  0.03478000  1.0
  H  H67  1  0.90046000  0.96068000  0.11610000  1.0
  H  H68  1  0.28617000  0.17661000  0.15556000  1.0
  H  H69  1  0.39743000  0.06925000  0.07272000  1.0
  H  H70  1  0.90168000  0.11642000  0.19529000  1.0
  H  H71  1  0.03595000  0.24006000  0.19801000  1.0
  H  H72  1  0.69556000  0.41918000  0.75000000  1.0
  H  H73  1  0.55932000  0.54004000  0.75000000  1.0
  H  H74  1  0.19556000  0.08082000  0.25000000  1.0
  H  H75  1  0.05932000  0.95996000  0.25000000  1.0
  H  H76  1  0.30444000  0.58082000  0.25000000  1.0
  H  H77  1  0.44068000  0.45996000  0.25000000  1.0
  H  H78  1  0.80444000  0.91918000  0.75000000  1.0
  H  H79  1  0.94068000  0.04004000  0.75000000  1.0
  C  C80  1  0.58051000  0.56799000  0.56283000  1.0
  C  C81  1  0.51131000  0.51296000  0.60894000  1.0
  C  C82  1  0.58396000  0.42504000  0.64440000  1.0
  C  C83  1  0.72452000  0.39351000  0.63036000  1.0
  C  C84  1  0.78746000  0.45182000  0.58385000  1.0
  C  C85  1  0.51731000  0.36863000  0.69656000  1.0
  C  C86  1  0.08051000  0.93201000  0.43717000  1.0
  C  C87  1  0.01131000  0.98704000  0.39106000  1.0
  C  C88  1  0.08395000  0.07496000  0.35560000  1.0
  C  C89  1  0.22452000  0.10649000  0.36964000  1.0
  C  C90  1  0.28746000  0.04818000  0.41615000  1.0
  C  C91  1  0.01731000  0.13137000  0.30344000  1.0
  C  C92  1  0.41949000  0.43201000  0.06283000  1.0
  C  C93  1  0.48869000  0.48704000  0.10894000  1.0
  C  C94  1  0.41605000  0.57496000  0.14440000  1.0
  C  C95  1  0.27548000  0.60649000  0.13036000  1.0
  C  C96  1  0.21254000  0.54818000  0.08385000  1.0
  C  C97  1  0.48269000  0.63137000  0.19656000  1.0
  C  C98  1  0.91949000  0.06799000  0.93717000  1.0
  C  C99  1  0.98869000  0.01296000  0.89106000  1.0
  C  C100  1  0.91604000  0.92504000  0.85560000  1.0
  C  C101  1  0.77548000  0.89351000  0.86964000  1.0
  C  C102  1  0.71254000  0.95182000  0.91615000  1.0
  C  C103  1  0.98269000  0.86863000  0.80344000  1.0
  C  C104  1  0.41949000  0.43201000  0.43717000  1.0
  C  C105  1  0.48869000  0.48704000  0.39106000  1.0
  C  C106  1  0.41604000  0.57496000  0.35560000  1.0
  C  C107  1  0.27548000  0.60649000  0.36964000  1.0
  C  C108  1  0.21254000  0.54818000  0.41615000  1.0
  C  C109  1  0.48269000  0.63137000  0.30344000  1.0
  C  C110  1  0.91949000  0.06799000  0.56283000  1.0
  C  C111  1  0.98870000  0.01296000  0.60894000  1.0
  C  C112  1  0.91605000  0.92504000  0.64440000  1.0
  C  C113  1  0.77549000  0.89351000  0.63036000  1.0
  C  C114  1  0.71254000  0.95182000  0.58385000  1.0
  C  C115  1  0.98269000  0.86863000  0.69656000  1.0
  C  C116  1  0.58051000  0.56799000  0.93717000  1.0
  C  C117  1  0.51131000  0.51296000  0.89106000  1.0
  C  C118  1  0.58395000  0.42504000  0.85560000  1.0
  C  C119  1  0.72451000  0.39351000  0.86964000  1.0
  C  C120  1  0.78746000  0.45182000  0.91615000  1.0
  C  C121  1  0.51731000  0.36863000  0.80344000  1.0
  C  C122  1  0.08051000  0.93201000  0.06283000  1.0
  C  C123  1  0.01131000  0.98704000  0.10894000  1.0
  C  C124  1  0.08395000  0.07496000  0.14440000  1.0
  C  C125  1  0.22451000  0.10649000  0.13036000  1.0
  C  C126  1  0.28746000  0.04818000  0.08385000  1.0
  C  C127  1  0.01731000  0.13137000  0.19656000  1.0
  C  C128  1  0.57931000  0.43162000  0.75000000  1.0
  C  C129  1  0.07931000  0.06838000  0.25000000  1.0
  C  C130  1  0.42069000  0.56838000  0.25000000  1.0
  C  C131  1  0.92069000  0.93162000  0.75000000  1.0
  N  N132  1  0.71710000  0.53941000  0.55082000  1.0
  N  N133  1  0.21710000  0.96059000  0.44918000  1.0
  N  N134  1  0.28290000  0.46059000  0.05082000  1.0
  N  N135  1  0.78289000  0.03941000  0.94918000  1.0
  N  N136  1  0.28290000  0.46058000  0.44918000  1.0
  N  N137  1  0.78290000  0.03941000  0.55082000  1.0
  N  N138  1  0.71710000  0.53942000  0.94918000  1.0
  N  N139  1  0.21710000  0.96059000  0.05082000  1.0
  O  O140  1  0.00432000  0.69435000  0.51961000  1.0
  O  O141  1  0.12724000  0.50059000  0.57237000  1.0
  O  O142  1  0.25991000  0.71634000  0.55245000  1.0
  O  O143  1  0.50432000  0.80565000  0.48039000  1.0
  O  O144  1  0.62724000  0.99941000  0.42763000  1.0
  O  O145  1  0.75991000  0.78366000  0.44755000  1.0
  O  O146  1  0.99567000  0.30566000  0.01961000  1.0
  O  O147  1  0.87276000  0.49941000  0.07237000  1.0
  O  O148  1  0.74008000  0.28366000  0.05245000  1.0
  O  O149  1  0.49567000  0.19434000  0.98039000  1.0
  O  O150  1  0.37276000  0.00059000  0.92763000  1.0
  O  O151  1  0.24008000  0.21634000  0.94755000  1.0
  O  O152  1  0.99568000  0.30565000  0.48039000  1.0
  O  O153  1  0.87276000  0.49941000  0.42763000  1.0
  O  O154  1  0.74009000  0.28366000  0.44755000  1.0
  O  O155  1  0.49567000  0.19434000  0.51961000  1.0
  O  O156  1  0.37276000  0.00059000  0.57237000  1.0
  O  O157  1  0.24009000  0.21634000  0.55245000  1.0
  O  O158  1  0.00433000  0.69434000  0.98039000  1.0
  O  O159  1  0.12724000  0.50059000  0.92763000  1.0
  O  O160  1  0.25992000  0.71634000  0.94755000  1.0
  O  O161  1  0.50433000  0.80566000  0.01961000  1.0
  O  O162  1  0.62724000  0.99941000  0.07237000  1.0
  O  O163  1  0.75992000  0.78366000  0.05245000  1.0
