# generated using pymatgen
data_ZnH6(C5N4)2
_symmetry_space_group_name_H-M   'P 1'
_cell_length_a   9.22454000
_cell_length_b   10.17410000
_cell_length_c   12.43850000
_cell_angle_alpha   90.00000000
_cell_angle_beta   90.00000000
_cell_angle_gamma   90.00000000
_symmetry_Int_Tables_number   1
_chemical_formula_structural   ZnH6(C5N4)2
_chemical_formula_sum   'Zn4 H24 C40 N32'
_cell_volume   1167.37054454
_cell_formula_units_Z   4
loop_
 _symmetry_equiv_pos_site_id
 _symmetry_equiv_pos_as_xyz
  1  'x, y, z'
loop_
 _atom_site_type_symbol
 _atom_site_label
 _atom_site_symmetry_multiplicity
 _atom_site_fract_x
 _atom_site_fract_y
 _atom_site_fract_z
 _atom_site_occupancy
  Zn  Zn0  1  0.05948000  0.84075000  0.63540000  1.0
  Zn  Zn1  1  0.55948000  0.65925000  0.36460000  1.0
  Zn  Zn2  1  0.94052000  0.34075000  0.86460000  1.0
  Zn  Zn3  1  0.44052000  0.15925000  0.13540000  1.0
  H  H4  1  0.26694000  0.80569000  0.43397000  1.0
  H  H5  1  0.76694000  0.69431000  0.56603000  1.0
  H  H6  1  0.73306000  0.30569000  0.06603000  1.0
  H  H7  1  0.23306000  0.19431000  0.93397000  1.0
  H  H8  1  0.26333000  0.68189000  0.83132000  1.0
  H  H9  1  0.76333000  0.81811000  0.16868000  1.0
  H  H10  1  0.73667000  0.18189000  0.66868000  1.0
  H  H11  1  0.23667000  0.31811000  0.33132000  1.0
  H  H12  1  0.06146000  0.54090000  0.69303000  1.0
  H  H13  1  0.56146000  0.95910000  0.30697000  1.0
  H  H14  1  0.93854000  0.04090000  0.80697000  1.0
  H  H15  1  0.43854000  0.45910000  0.19303000  1.0
  H  H16  1  0.63874000  0.46758000  0.77275000  1.0
  H  H17  1  0.13874000  0.03241000  0.22725000  1.0
  H  H18  1  0.36126000  0.96758000  0.72725000  1.0
  H  H19  1  0.86126000  0.53242000  0.27275000  1.0
  H  H20  1  0.68787000  0.94689000  0.97869000  1.0
  H  H21  1  0.18787000  0.55311000  0.02131000  1.0
  H  H22  1  0.31213000  0.44689000  0.52131000  1.0
  H  H23  1  0.81213000  0.05311000  0.47869000  1.0
  H  H24  1  0.72126000  0.54264000  0.01518000  1.0
  H  H25  1  0.22126000  0.95736000  0.98482000  1.0
  H  H26  1  0.27874000  0.04264000  0.48482000  1.0
  H  H27  1  0.77874000  0.45736000  0.51518000  1.0
  C  C28  1  0.31497000  0.75687000  0.50323000  1.0
  C  C29  1  0.81497000  0.74312000  0.49676000  1.0
  C  C30  1  0.68503000  0.25687000  0.99676000  1.0
  C  C31  1  0.18503000  0.24313000  0.00324000  1.0
  C  C32  1  0.46119000  0.64154000  0.60082000  1.0
  C  C33  1  0.96119000  0.85845000  0.39918000  1.0
  C  C34  1  0.53881000  0.14154000  0.89917000  1.0
  C  C35  1  0.03881000  0.35846000  0.10082000  1.0
  C  C36  1  0.34538000  0.68671000  0.66595000  1.0
  C  C37  1  0.84538000  0.81329000  0.33405000  1.0
  C  C38  1  0.65462000  0.18671000  0.83405000  1.0
  C  C39  1  0.15462000  0.31329000  0.16595000  1.0
  C  C40  1  0.34528000  0.64896000  0.77369000  1.0
  C  C41  1  0.84528000  0.85104000  0.22631000  1.0
  C  C42  1  0.65472000  0.14896000  0.72631000  1.0
  C  C43  1  0.15471000  0.35104000  0.27369000  1.0
  C  C44  1  0.87519000  0.74922000  0.83097000  1.0
  C  C45  1  0.37520000  0.75078000  0.16903000  1.0
  C  C46  1  0.12480000  0.24922000  0.66903000  1.0
  C  C47  1  0.62481000  0.25078000  0.33097000  1.0
  C  C48  1  0.99086000  0.59340000  0.74898000  1.0
  C  C49  1  0.49086000  0.90660000  0.25102000  1.0
  C  C50  1  0.00914000  0.09340000  0.75102000  1.0
  C  C51  1  0.50914000  0.40660000  0.24898000  1.0
  C  C52  1  0.55508000  0.53219000  0.74036000  1.0
  C  C53  1  0.05508000  0.96781000  0.25964000  1.0
  C  C54  1  0.44492000  0.03219000  0.75964000  1.0
  C  C55  1  0.94492000  0.46781000  0.24036000  1.0
  C  C56  1  0.73355000  0.85518000  0.94841000  1.0
  C  C57  1  0.23355000  0.64482000  0.05159000  1.0
  C  C58  1  0.26645000  0.35518000  0.55159000  1.0
  C  C59  1  0.76645000  0.14482000  0.44841000  1.0
  C  C60  1  0.75112000  0.63060000  0.97031000  1.0
  C  C61  1  0.25112000  0.86940000  0.02969000  1.0
  C  C62  1  0.24888000  0.13060000  0.52969000  1.0
  C  C63  1  0.74888000  0.36941000  0.47032000  1.0
  C  C64  1  0.84534000  0.62809000  0.88284000  1.0
  C  C65  1  0.34534000  0.87192000  0.11716000  1.0
  C  C66  1  0.15466000  0.12808000  0.61716000  1.0
  C  C67  1  0.65466000  0.37191000  0.38284000  1.0
  N  N68  1  0.25370000  0.76059000  0.60150000  1.0
  N  N69  1  0.75370000  0.73941000  0.39850000  1.0
  N  N70  1  0.74630000  0.26059000  0.89850000  1.0
  N  N71  1  0.24630000  0.23941000  0.10150000  1.0
  N  N72  1  0.43973000  0.68754000  0.49782000  1.0
  N  N73  1  0.93973000  0.81246000  0.50218000  1.0
  N  N74  1  0.56027000  0.18754000  0.00218000  1.0
  N  N75  1  0.06027000  0.31246000  0.99781000  1.0
  N  N76  1  0.96758000  0.72477000  0.74605000  1.0
  N  N77  1  0.46758000  0.77523000  0.25395000  1.0
  N  N78  1  0.03242000  0.22477000  0.75395000  1.0
  N  N79  1  0.53242000  0.27523000  0.24605000  1.0
  N  N80  1  0.56926000  0.56536000  0.63646000  1.0
  N  N81  1  0.06926000  0.93464000  0.36354000  1.0
  N  N82  1  0.43074000  0.06536000  0.86353000  1.0
  N  N83  1  0.93074000  0.43464000  0.13647000  1.0
  N  N84  1  0.92120000  0.53040000  0.82890000  1.0
  N  N85  1  0.42120000  0.96960000  0.17110000  1.0
  N  N86  1  0.07880000  0.03040000  0.67110000  1.0
  N  N87  1  0.57880000  0.46960000  0.32890000  1.0
  N  N88  1  0.82040000  0.86468000  0.86240000  1.0
  N  N89  1  0.32040000  0.63532000  0.13760000  1.0
  N  N90  1  0.17960000  0.36468000  0.63760000  1.0
  N  N91  1  0.67960000  0.13531000  0.36240000  1.0
  N  N92  1  0.69572000  0.74586000  0.00279000  1.0
  N  N93  1  0.19572000  0.75414000  0.99721000  1.0
  N  N94  1  0.30428000  0.24586000  0.49721000  1.0
  N  N95  1  0.80428000  0.25414000  0.50279000  1.0
  N  N96  1  0.45075000  0.56955000  0.80986000  1.0
  N  N97  1  0.95076000  0.93045000  0.19014000  1.0
  N  N98  1  0.54925000  0.06954000  0.69014000  1.0
  N  N99  1  0.04924000  0.43046000  0.30986000  1.0
