# generated using pymatgen
data_AgH8C11(SN)3
_symmetry_space_group_name_H-M   'P 1'
_cell_length_a   8.49215000
_cell_length_b   11.21630000
_cell_length_c   14.21880000
_cell_angle_alpha   90.00000000
_cell_angle_beta   90.00000000
_cell_angle_gamma   107.67500000
_symmetry_Int_Tables_number   1
_chemical_formula_structural   AgH8C11(SN)3
_chemical_formula_sum   'Ag4 H32 C44 S12 N12'
_cell_volume   1290.41456215
_cell_formula_units_Z   4
loop_
 _symmetry_equiv_pos_site_id
 _symmetry_equiv_pos_as_xyz
  1  'x, y, z'
loop_
 _atom_site_type_symbol
 _atom_site_label
 _atom_site_symmetry_multiplicity
 _atom_site_fract_x
 _atom_site_fract_y
 _atom_site_fract_z
 _atom_site_occupancy
  Ag  Ag0  1  0.88654000  0.61302000  0.79999000  1.0
  Ag  Ag1  1  0.11346000  0.88698000  0.29999000  1.0
  Ag  Ag2  1  0.11347000  0.38698000  0.20002000  1.0
  Ag  Ag3  1  0.88654000  0.11301000  0.70001000  1.0
  H  H4  1  0.91869000  0.89533000  0.87477000  1.0
  H  H5  1  0.08131000  0.60467000  0.37476000  1.0
  H  H6  1  0.08132000  0.10468000  0.12524000  1.0
  H  H7  1  0.91869000  0.39533000  0.62523000  1.0
  H  H8  1  0.13268000  0.09740000  0.91515000  1.0
  H  H9  1  0.86732000  0.40260000  0.41515000  1.0
  H  H10  1  0.86733000  0.90261000  0.08485000  1.0
  H  H11  1  0.13268000  0.59740000  0.58485000  1.0
  H  H12  1  0.43282000  0.10255000  0.91810000  1.0
  H  H13  1  0.56717000  0.39745000  0.41810000  1.0
  H  H14  1  0.56718000  0.89746000  0.08190000  1.0
  H  H15  1  0.43283000  0.60255000  0.58190000  1.0
  H  H16  1  0.50360000  0.90775000  0.88100000  1.0
  H  H17  1  0.49640000  0.59225000  0.38100000  1.0
  H  H18  1  0.49641000  0.09225000  0.11900000  1.0
  H  H19  1  0.50360000  0.40775000  0.61900000  1.0
  H  H20  1  0.35811000  0.65934000  0.01566000  1.0
  H  H21  1  0.64189000  0.84067000  0.51567000  1.0
  H  H22  1  0.64189000  0.34066000  0.98433000  1.0
  H  H23  1  0.35811000  0.15933000  0.48433000  1.0
  H  H24  1  0.48718000  0.63913000  0.16999000  1.0
  H  H25  1  0.51281000  0.86086000  0.66999000  1.0
  H  H26  1  0.51281000  0.36085000  0.83001000  1.0
  H  H27  1  0.48719000  0.13914000  0.33001000  1.0
  H  H28  1  0.78247000  0.63215000  0.17278000  1.0
  H  H29  1  0.21752000  0.86785000  0.67278000  1.0
  H  H30  1  0.21753000  0.36784000  0.82722000  1.0
  H  H31  1  0.78248000  0.13216000  0.32722000  1.0
  H  H32  1  0.92921000  0.63906000  0.01975000  1.0
  H  H33  1  0.07079000  0.86094000  0.51974000  1.0
  H  H34  1  0.07080000  0.36094000  0.98026000  1.0
  H  H35  1  0.92920000  0.13905000  0.48026000  1.0
  C  C36  1  0.04957000  0.90258000  0.87749000  1.0
  C  C37  1  0.95043000  0.59742000  0.37749000  1.0
  C  C38  1  0.95044000  0.09742000  0.12251000  1.0
  C  C39  1  0.04957000  0.40258000  0.62251000  1.0
  C  C40  1  0.16926000  0.01427000  0.90051000  1.0
  C  C41  1  0.83073000  0.48573000  0.40051000  1.0
  C  C42  1  0.83074000  0.98574000  0.09949000  1.0
  C  C43  1  0.16927000  0.51427000  0.59949000  1.0
  C  C44  1  0.33472000  0.01680000  0.90170000  1.0
  C  C45  1  0.66528000  0.48320000  0.40170000  1.0
  C  C46  1  0.66529000  0.98320000  0.09830000  1.0
  C  C47  1  0.33472000  0.51680000  0.59830000  1.0
  C  C48  1  0.37565000  0.90850000  0.88093000  1.0
  C  C49  1  0.62435000  0.59149000  0.38093000  1.0
  C  C50  1  0.62435000  0.09150000  0.11907000  1.0
  C  C51  1  0.37565000  0.40850000  0.61907000  1.0
  C  C52  1  0.24693000  0.80123000  0.85856000  1.0
  C  C53  1  0.75307000  0.69877000  0.35856000  1.0
  C  C54  1  0.75308000  0.19878000  0.14144000  1.0
  C  C55  1  0.24693000  0.30122000  0.64144000  1.0
  C  C56  1  0.57877000  0.66104000  0.93803000  1.0
  C  C57  1  0.42123000  0.83897000  0.43803000  1.0
  C  C58  1  0.42124000  0.33896000  0.06197000  1.0
  C  C59  1  0.57877000  0.16103000  0.56197000  1.0
  C  C60  1  0.48473000  0.65606000  0.01932000  1.0
  C  C61  1  0.51527000  0.84395000  0.51932000  1.0
  C  C62  1  0.51527000  0.34394000  0.98068000  1.0
  C  C63  1  0.48473000  0.15605000  0.48068000  1.0
  C  C64  1  0.55805000  0.64481000  0.10528000  1.0
  C  C65  1  0.44195000  0.85520000  0.60528000  1.0
  C  C66  1  0.44195000  0.35519000  0.89472000  1.0
  C  C67  1  0.55805000  0.14480000  0.39472000  1.0
  C  C68  1  0.72041000  0.63995000  0.10720000  1.0
  C  C69  1  0.27959000  0.86005000  0.60720000  1.0
  C  C70  1  0.27959000  0.36004000  0.89280000  1.0
  C  C71  1  0.72041000  0.13996000  0.39280000  1.0
  C  C72  1  0.80324000  0.64439000  0.02218000  1.0
  C  C73  1  0.19676000  0.85562000  0.52218000  1.0
  C  C74  1  0.19676000  0.35561000  0.97782000  1.0
  C  C75  1  0.80324000  0.14438000  0.47782000  1.0
  C  C76  1  0.84593000  0.81205000  0.65460000  1.0
  C  C77  1  0.15407000  0.68794000  0.15461000  1.0
  C  C78  1  0.15406000  0.18793000  0.34540000  1.0
  C  C79  1  0.84593000  0.31205000  0.84540000  1.0
  S  S80  1  0.26638000  0.65198000  0.83076000  1.0
  S  S81  1  0.73362000  0.84802000  0.33076000  1.0
  S  S82  1  0.73362000  0.34802000  0.16924000  1.0
  S  S83  1  0.26638000  0.15198000  0.66924000  1.0
  S  S84  1  0.51302000  0.67706000  0.82095000  1.0
  S  S85  1  0.48697000  0.82294000  0.32096000  1.0
  S  S86  1  0.48698000  0.32294000  0.17904000  1.0
  S  S87  1  0.51302000  0.17706000  0.67904000  1.0
  S  S88  1  0.81604000  0.66261000  0.63653000  1.0
  S  S89  1  0.18396000  0.83739000  0.13653000  1.0
  S  S90  1  0.18395000  0.33737000  0.36347000  1.0
  S  S91  1  0.81604000  0.16262000  0.86346000  1.0
  N  N92  1  0.08753000  0.79780000  0.85620000  1.0
  N  N93  1  0.91246000  0.70220000  0.35620000  1.0
  N  N94  1  0.91247000  0.20221000  0.14380000  1.0
  N  N95  1  0.08754000  0.29780000  0.64380000  1.0
  N  N96  1  0.73386000  0.65473000  0.93887000  1.0
  N  N97  1  0.26614000  0.84528000  0.43887000  1.0
  N  N98  1  0.26614000  0.34528000  0.06113000  1.0
  N  N99  1  0.73386000  0.15472000  0.56113000  1.0
  N  N100  1  0.86798000  0.92065000  0.66458000  1.0
  N  N101  1  0.13202000  0.57936000  0.16459000  1.0
  N  N102  1  0.13201000  0.07935000  0.33542000  1.0
  N  N103  1  0.86798000  0.42065000  0.83542000  1.0
