# generated using pymatgen
data_SnH13C9NO3
_symmetry_space_group_name_H-M   'P 1'
_cell_length_a   8.08265000
_cell_length_b   10.38040000
_cell_length_c   13.81360000
_cell_angle_alpha   90.00080000
_cell_angle_beta   90.00040000
_cell_angle_gamma   89.99980000
_symmetry_Int_Tables_number   1
_chemical_formula_structural   SnH13C9NO3
_chemical_formula_sum   'Sn4 H52 C36 N4 O12'
_cell_volume   1158.97678818
_cell_formula_units_Z   4
loop_
 _symmetry_equiv_pos_site_id
 _symmetry_equiv_pos_as_xyz
  1  'x, y, z'
loop_
 _atom_site_type_symbol
 _atom_site_label
 _atom_site_symmetry_multiplicity
 _atom_site_fract_x
 _atom_site_fract_y
 _atom_site_fract_z
 _atom_site_occupancy
  Sn  Sn0  1  0.50769000  0.73985000  0.99384000  1.0
  Sn  Sn1  1  0.00769000  0.26015000  0.00616000  1.0
  Sn  Sn2  1  0.50768000  0.76015000  0.49384000  1.0
  Sn  Sn3  1  0.00769000  0.23985000  0.50616000  1.0
  H  H4  1  0.88453000  0.54811000  0.68593000  1.0
  H  H5  1  0.38455000  0.45188000  0.31408000  1.0
  H  H6  1  0.88456000  0.95190000  0.18593000  1.0
  H  H7  1  0.38455000  0.04811000  0.81408000  1.0
  H  H8  1  0.12243000  0.57005000  0.77812000  1.0
  H  H9  1  0.62245000  0.42994000  0.22188000  1.0
  H  H10  1  0.12245000  0.92995000  0.27812000  1.0
  H  H11  1  0.62244000  0.07005000  0.72188000  1.0
  H  H12  1  0.11058000  0.97904000  0.72480000  1.0
  H  H13  1  0.61060000  0.02095000  0.27520000  1.0
  H  H14  1  0.11058000  0.52095000  0.22480000  1.0
  H  H15  1  0.61060000  0.47904000  0.77519000  1.0
  H  H16  1  0.85091000  0.94904000  0.63089000  1.0
  H  H17  1  0.35092000  0.05095000  0.36911000  1.0
  H  H18  1  0.85091000  0.55097000  0.13088000  1.0
  H  H19  1  0.35093000  0.44904000  0.86911000  1.0
  H  H20  1  0.54032000  0.48605000  0.04819000  1.0
  H  H21  1  0.04032000  0.51394000  0.95181000  1.0
  H  H22  1  0.54032000  0.01394000  0.54819000  1.0
  H  H23  1  0.04033000  0.98606000  0.45181000  1.0
  H  H24  1  0.32631000  0.53003000  0.04282000  1.0
  H  H25  1  0.82630000  0.46997000  0.95718000  1.0
  H  H26  1  0.32630000  0.96998000  0.54282000  1.0
  H  H27  1  0.82631000  0.03003000  0.45718000  1.0
  H  H28  1  0.44934000  0.57971000  0.14349000  1.0
  H  H29  1  0.94932000  0.42029000  0.85652000  1.0
  H  H30  1  0.44932000  0.92029000  0.64348000  1.0
  H  H31  1  0.94933000  0.07971000  0.35651000  1.0
  H  H32  1  0.43126000  0.99328000  0.01939000  1.0
  H  H33  1  0.93126000  0.00672000  0.98062000  1.0
  H  H34  1  0.43125000  0.50672000  0.51938000  1.0
  H  H35  1  0.93126000  0.49328000  0.48062000  1.0
  H  H36  1  0.40517000  0.90724000  0.13065000  1.0
  H  H37  1  0.90517000  0.09276000  0.86934000  1.0
  H  H38  1  0.40517000  0.59276000  0.63065000  1.0
  H  H39  1  0.90517000  0.40725000  0.36934000  1.0
  H  H40  1  0.25013000  0.89772000  0.03755000  1.0
  H  H41  1  0.75012000  0.10228000  0.96244000  1.0
  H  H42  1  0.25012000  0.60228000  0.53756000  1.0
  H  H43  1  0.75013000  0.39772000  0.46244000  1.0
  H  H44  1  0.82031000  0.71162000  0.92276000  1.0
  H  H45  1  0.32031000  0.28840000  0.07723000  1.0
  H  H46  1  0.82031000  0.78838000  0.42278000  1.0
  H  H47  1  0.32031000  0.21162000  0.57723000  1.0
  H  H48  1  0.72386000  0.85042000  0.86974000  1.0
  H  H49  1  0.22388000  0.14959000  0.13026000  1.0
  H  H50  1  0.72388000  0.64958000  0.36975000  1.0
  H  H51  1  0.22387000  0.35042000  0.63026000  1.0
  H  H52  1  0.67106000  0.69337000  0.82752000  1.0
  H  H53  1  0.17106000  0.30664000  0.17248000  1.0
  H  H54  1  0.67108000  0.80663000  0.32753000  1.0
  H  H55  1  0.17107000  0.19337000  0.67248000  1.0
  C  C56  1  0.28394000  0.79127000  0.82473000  1.0
  C  C57  1  0.78395000  0.20872000  0.17527000  1.0
  C  C58  1  0.28395000  0.70872000  0.32472000  1.0
  C  C59  1  0.78395000  0.29128000  0.67527000  1.0
  C  C60  1  0.06910000  0.65684000  0.74696000  1.0
  C  C61  1  0.56912000  0.34315000  0.25304000  1.0
  C  C62  1  0.06913000  0.84316000  0.24696000  1.0
  C  C63  1  0.56912000  0.15683000  0.75304000  1.0
  C  C64  1  0.13715000  0.77722000  0.76092000  1.0
  C  C65  1  0.63716000  0.22277000  0.23908000  1.0
  C  C66  1  0.13717000  0.72278000  0.26092000  1.0
  C  C67  1  0.63717000  0.27722000  0.73907000  1.0
  C  C68  1  0.05802000  0.88304000  0.71546000  1.0
  C  C69  1  0.55804000  0.11696000  0.28454000  1.0
  C  C70  1  0.05803000  0.61696000  0.21545000  1.0
  C  C71  1  0.55803000  0.38304000  0.78455000  1.0
  C  C72  1  0.91445000  0.86698000  0.66305000  1.0
  C  C73  1  0.41446000  0.13301000  0.33695000  1.0
  C  C74  1  0.91446000  0.63303000  0.16305000  1.0
  C  C75  1  0.41447000  0.36698000  0.83695000  1.0
  C  C76  1  0.84211000  0.74181000  0.65324000  1.0
  C  C77  1  0.34214000  0.25818000  0.34676000  1.0
  C  C78  1  0.84214000  0.75820000  0.15324000  1.0
  C  C79  1  0.34214000  0.24181000  0.84676000  1.0
  C  C80  1  0.44989000  0.56150000  0.06533000  1.0
  C  C81  1  0.94989000  0.43850000  0.93467000  1.0
  C  C82  1  0.44988000  0.93849000  0.56533000  1.0
  C  C83  1  0.94990000  0.06151000  0.43467000  1.0
  C  C84  1  0.38304000  0.90503000  0.05245000  1.0
  C  C85  1  0.88304000  0.09497000  0.94755000  1.0
  C  C86  1  0.38303000  0.59497000  0.55244000  1.0
  C  C87  1  0.88304000  0.40503000  0.44755000  1.0
  C  C88  1  0.70606000  0.74983000  0.89128000  1.0
  C  C89  1  0.20607000  0.25018000  0.10871000  1.0
  C  C90  1  0.70607000  0.75017000  0.39129000  1.0
  C  C91  1  0.20607000  0.24984000  0.60872000  1.0
  N  N92  1  0.93149000  0.64161000  0.69388000  1.0
  N  N93  1  0.43150000  0.35838000  0.30613000  1.0
  N  N94  1  0.93150000  0.85839000  0.19387000  1.0
  N  N95  1  0.43151000  0.14161000  0.80612000  1.0
  O  O96  1  0.31492000  0.69494000  0.88166000  1.0
  O  O97  1  0.81492000  0.30506000  0.11833000  1.0
  O  O98  1  0.31494000  0.80506000  0.38166000  1.0
  O  O99  1  0.81493000  0.19494000  0.61833000  1.0
  O  O100  1  0.36958000  0.89234000  0.82304000  1.0
  O  O101  1  0.86960000  0.10767000  0.17696000  1.0
  O  O102  1  0.36958000  0.60767000  0.32304000  1.0
  O  O103  1  0.86959000  0.39233000  0.67696000  1.0
  O  O104  1  0.70560000  0.71283000  0.61413000  1.0
  O  O105  1  0.20561000  0.28717000  0.38588000  1.0
  O  O106  1  0.70561000  0.78718000  0.11412000  1.0
  O  O107  1  0.20562000  0.21283000  0.88588000  1.0
