# generated using pymatgen
data_ZnH10C6S2(NO)4
_symmetry_space_group_name_H-M   'P 1'
_cell_length_a   6.74620000
_cell_length_b   11.49760000
_cell_length_c   14.67250000
_cell_angle_alpha   90.00000000
_cell_angle_beta   90.00000000
_cell_angle_gamma   89.99980000
_symmetry_Int_Tables_number   1
_chemical_formula_structural   ZnH10C6S2(NO)4
_chemical_formula_sum   'Zn4 H40 C24 S8 N16 O16'
_cell_volume   1138.07406356
_cell_formula_units_Z   4
loop_
 _symmetry_equiv_pos_site_id
 _symmetry_equiv_pos_as_xyz
  1  'x, y, z'
loop_
 _atom_site_type_symbol
 _atom_site_label
 _atom_site_symmetry_multiplicity
 _atom_site_fract_x
 _atom_site_fract_y
 _atom_site_fract_z
 _atom_site_occupancy
  Zn  Zn0  1  0.20026000  0.25000000  0.00000000  1.0
  Zn  Zn1  1  0.29974000  0.75000000  0.50000000  1.0
  Zn  Zn2  1  0.79974000  0.75000000  0.00000000  1.0
  Zn  Zn3  1  0.70026000  0.25000000  0.50000000  1.0
  H  H4  1  0.89821000  0.23390000  0.30308000  1.0
  H  H5  1  0.89821000  0.26610000  0.69692000  1.0
  H  H6  1  0.60179000  0.73390000  0.19692000  1.0
  H  H7  1  0.60179000  0.76610000  0.80308000  1.0
  H  H8  1  0.10179000  0.76610000  0.69692000  1.0
  H  H9  1  0.10179000  0.73390000  0.30308000  1.0
  H  H10  1  0.39821000  0.26610000  0.80308000  1.0
  H  H11  1  0.39821000  0.23390000  0.19692000  1.0
  H  H12  1  0.99819000  0.09816000  0.26814000  1.0
  H  H13  1  0.99819000  0.40184000  0.73186000  1.0
  H  H14  1  0.50181000  0.59816000  0.23186000  1.0
  H  H15  1  0.50181000  0.90184000  0.76814000  1.0
  H  H16  1  0.00181000  0.90184000  0.73186000  1.0
  H  H17  1  0.00181000  0.59816000  0.26814000  1.0
  H  H18  1  0.49819000  0.40184000  0.76814000  1.0
  H  H19  1  0.49819000  0.09816000  0.23186000  1.0
  H  H20  1  0.85910000  0.38052000  0.19684000  1.0
  H  H21  1  0.85910000  0.11948000  0.80316000  1.0
  H  H22  1  0.64090000  0.88052000  0.30316000  1.0
  H  H23  1  0.64090000  0.61948000  0.69684000  1.0
  H  H24  1  0.14090000  0.61948000  0.80316000  1.0
  H  H25  1  0.14090000  0.88052000  0.19684000  1.0
  H  H26  1  0.35910000  0.11948000  0.69684000  1.0
  H  H27  1  0.35910000  0.38052000  0.30316000  1.0
  H  H28  1  0.87116000  0.34721000  0.07911000  1.0
  H  H29  1  0.87116000  0.15279000  0.92089000  1.0
  H  H30  1  0.62885000  0.84721000  0.42089000  1.0
  H  H31  1  0.62884000  0.65279000  0.57911000  1.0
  H  H32  1  0.12885000  0.65279000  0.92089000  1.0
  H  H33  1  0.12885000  0.84721000  0.07911000  1.0
  H  H34  1  0.37115000  0.15279000  0.57911000  1.0
  H  H35  1  0.37115000  0.34721000  0.42089000  1.0
  H  H36  1  0.46124000  0.60723000  0.06055000  1.0
  H  H37  1  0.46124000  0.89277000  0.93945000  1.0
  H  H38  1  0.03876000  0.10723000  0.43945000  1.0
  H  H39  1  0.03876000  0.39277000  0.56055000  1.0
  H  H40  1  0.53876000  0.39277000  0.93945000  1.0
  H  H41  1  0.53876000  0.10723000  0.06055000  1.0
  H  H42  1  0.96124000  0.89277000  0.56055000  1.0
  H  H43  1  0.96124000  0.60723000  0.43945000  1.0
  C  C44  1  0.41107000  0.43110000  0.11400000  1.0
  C  C45  1  0.41107000  0.06890000  0.88600000  1.0
  C  C46  1  0.08893000  0.93110000  0.38600000  1.0
  C  C47  1  0.08893000  0.56890000  0.61400000  1.0
  C  C48  1  0.58893000  0.56890000  0.88600000  1.0
  C  C49  1  0.58893000  0.93110000  0.11400000  1.0
  C  C50  1  0.91107000  0.06890000  0.61400000  1.0
  C  C51  1  0.91107000  0.43110000  0.38600000  1.0
  C  C52  1  0.93560000  0.21339000  0.16535000  1.0
  C  C53  1  0.93560000  0.28661000  0.83465000  1.0
  C  C54  1  0.56440000  0.71339000  0.33465000  1.0
  C  C55  1  0.56440000  0.78661000  0.66535000  1.0
  C  C56  1  0.06440000  0.78661000  0.83465000  1.0
  C  C57  1  0.06440000  0.71339000  0.16535000  1.0
  C  C58  1  0.43560000  0.28661000  0.66535000  1.0
  C  C59  1  0.43560000  0.21339000  0.33465000  1.0
  C  C60  1  0.46760000  0.51564000  0.04150000  1.0
  C  C61  1  0.46759000  0.98436000  0.95850000  1.0
  C  C62  1  0.03240000  0.01564000  0.45850000  1.0
  C  C63  1  0.03241000  0.48436000  0.54150000  1.0
  C  C64  1  0.53241000  0.48436000  0.95850000  1.0
  C  C65  1  0.53240000  0.01564000  0.04150000  1.0
  C  C66  1  0.96760000  0.98436000  0.54150000  1.0
  C  C67  1  0.96760000  0.51564000  0.45850000  1.0
  S  S68  1  0.01328000  0.11615000  0.08094000  1.0
  S  S69  1  0.01328000  0.38385000  0.91906000  1.0
  S  S70  1  0.48672000  0.61615000  0.41906000  1.0
  S  S71  1  0.48671000  0.88385000  0.58094000  1.0
  S  S72  1  0.98672000  0.88385000  0.91906000  1.0
  S  S73  1  0.98672000  0.61615000  0.08095000  1.0
  S  S74  1  0.51328000  0.38385000  0.58094000  1.0
  S  S75  1  0.51328000  0.11615000  0.41906000  1.0
  N  N76  1  0.94050000  0.17875000  0.25113000  1.0
  N  N77  1  0.94050000  0.32125000  0.74887000  1.0
  N  N78  1  0.55950000  0.67875000  0.24887000  1.0
  N  N79  1  0.55950000  0.82125000  0.75113000  1.0
  N  N80  1  0.05950000  0.82125000  0.74887000  1.0
  N  N81  1  0.05950000  0.67875000  0.25113000  1.0
  N  N82  1  0.44050000  0.32125000  0.75113000  1.0
  N  N83  1  0.44050000  0.17875000  0.24887000  1.0
  N  N84  1  0.87076000  0.32009000  0.14515000  1.0
  N  N85  1  0.87076000  0.17991000  0.85485000  1.0
  N  N86  1  0.62924000  0.82009000  0.35485000  1.0
  N  N87  1  0.62924000  0.67991000  0.64515000  1.0
  N  N88  1  0.12924000  0.67991000  0.85485000  1.0
  N  N89  1  0.12925000  0.82009000  0.14515000  1.0
  N  N90  1  0.37075000  0.17991000  0.64515000  1.0
  N  N91  1  0.37076000  0.32009000  0.35485000  1.0
  O  O92  1  0.37328000  0.32393000  0.09267000  1.0
  O  O93  1  0.37327000  0.17607000  0.90733000  1.0
  O  O94  1  0.12673000  0.82393000  0.40733000  1.0
  O  O95  1  0.12672000  0.67607000  0.59267000  1.0
  O  O96  1  0.62673000  0.67607000  0.90733000  1.0
  O  O97  1  0.62673000  0.82393000  0.09267000  1.0
  O  O98  1  0.87328000  0.17607000  0.59267000  1.0
  O  O99  1  0.87328000  0.32393000  0.40733000  1.0
  O  O100  1  0.40991000  0.46548000  0.19538000  1.0
  O  O101  1  0.40992000  0.03452000  0.80462000  1.0
  O  O102  1  0.09009000  0.96548000  0.30462000  1.0
  O  O103  1  0.09009000  0.53452000  0.69538000  1.0
  O  O104  1  0.59008000  0.53452000  0.80462000  1.0
  O  O105  1  0.59008000  0.96548000  0.19538000  1.0
  O  O106  1  0.90992000  0.03452000  0.69538000  1.0
  O  O107  1  0.90992000  0.46548000  0.30462000  1.0
