# generated using pymatgen
data_Na2H10C2(N2O)5
_symmetry_space_group_name_H-M   'P 1'
_cell_length_a   7.10057000
_cell_length_b   7.50940000
_cell_length_c   11.95410000
_cell_angle_alpha   80.26240000
_cell_angle_beta   81.51780000
_cell_angle_gamma   68.75470000
_symmetry_Int_Tables_number   1
_chemical_formula_structural   Na2H10C2(N2O)5
_chemical_formula_sum   'Na4 H20 C4 N20 O10'
_cell_volume   582.94163524
_cell_formula_units_Z   2
loop_
 _symmetry_equiv_pos_site_id
 _symmetry_equiv_pos_as_xyz
  1  'x, y, z'
loop_
 _atom_site_type_symbol
 _atom_site_label
 _atom_site_symmetry_multiplicity
 _atom_site_fract_x
 _atom_site_fract_y
 _atom_site_fract_z
 _atom_site_occupancy
  Na  Na0  1  0.86729000  0.37701000  0.58590000  1.0
  Na  Na1  1  0.13271000  0.62299000  0.41410000  1.0
  Na  Na2  1  0.63974000  0.45885000  0.86301000  1.0
  Na  Na3  1  0.36026000  0.54115000  0.13698000  1.0
  H  H4  1  0.70382000  0.77248000  0.44980000  1.0
  H  H5  1  0.29618000  0.22752000  0.55020000  1.0
  H  H6  1  0.73270000  0.77210000  0.57663000  1.0
  H  H7  1  0.26730000  0.22789000  0.42337000  1.0
  H  H8  1  0.66628000  0.16620000  0.50358000  1.0
  H  H9  1  0.33372000  0.83379000  0.49642000  1.0
  H  H10  1  0.81683000  0.18892000  0.39266000  1.0
  H  H11  1  0.18317000  0.81108000  0.60734000  1.0
  H  H12  1  0.09638000  0.35182000  0.76856000  1.0
  H  H13  1  0.90362000  0.64818000  0.23144000  1.0
  H  H14  1  0.98407000  0.57170000  0.77886000  1.0
  H  H15  1  0.01593000  0.42830000  0.22114000  1.0
  H  H16  1  0.44159000  0.57100000  0.62743000  1.0
  H  H17  1  0.55842000  0.42900000  0.37258000  1.0
  H  H18  1  0.48184000  0.36069000  0.68870000  1.0
  H  H19  1  0.51817000  0.63931000  0.31130000  1.0
  H  H20  1  0.74221000  0.63719000  0.03800000  1.0
  H  H21  1  0.25780000  0.36281000  0.96200000  1.0
  H  H22  1  0.80291000  0.41921000  0.08891000  1.0
  H  H23  1  0.19710000  0.58079000  0.91109000  1.0
  C  C24  1  0.86727000  0.93718000  0.88788000  1.0
  C  C25  1  0.13273000  0.06282000  0.11212000  1.0
  C  C26  1  0.61079000  0.02041000  0.15654000  1.0
  C  C27  1  0.38920000  0.97960000  0.84346000  1.0
  N  N28  1  0.81585000  0.11071000  0.82360000  1.0
  N  N29  1  0.18415000  0.88929000  0.17640000  1.0
  N  N30  1  0.92290000  0.07784000  0.72339000  1.0
  N  N31  1  0.07710000  0.92215000  0.27661000  1.0
  N  N32  1  0.03682000  0.89218000  0.72682000  1.0
  N  N33  1  0.96318000  0.10782000  0.27319000  1.0
  N  N34  1  0.00426000  0.79901000  0.82922000  1.0
  N  N35  1  0.99574000  0.20099000  0.17078000  1.0
  N  N36  1  0.79311000  0.89623000  0.99987000  1.0
  N  N37  1  0.20688000  0.10377000  0.00013000  1.0
  N  N38  1  0.68629000  0.04853000  0.04455000  1.0
  N  N39  1  0.31370000  0.95147000  0.95545000  1.0
  N  N40  1  0.66316000  0.85961000  0.23280000  1.0
  N  N41  1  0.33683000  0.14040000  0.76719000  1.0
  N  N42  1  0.55120000  0.91296000  0.32916000  1.0
  N  N43  1  0.44880000  0.08705000  0.67085000  1.0
  N  N44  1  0.43352000  0.09934000  0.31156000  1.0
  N  N45  1  0.56648000  0.90067000  0.68844000  1.0
  N  N46  1  0.47013000  0.17050000  0.20488000  1.0
  N  N47  1  0.52987000  0.82951000  0.79512000  1.0
  O  O48  1  0.80077000  0.70754000  0.50778000  1.0
  O  O49  1  0.19923000  0.29247000  0.49223000  1.0
  O  O50  1  0.72601000  0.25589000  0.45753000  1.0
  O  O51  1  0.27399000  0.74411000  0.54247000  1.0
  O  O52  1  0.96623000  0.45914000  0.75665000  1.0
  O  O53  1  0.03377000  0.54085000  0.24335000  1.0
  O  O54  1  0.53126000  0.46799000  0.68003000  1.0
  O  O55  1  0.46875000  0.53201000  0.31997000  1.0
  O  O56  1  0.70156000  0.52334000  0.04434000  1.0
  O  O57  1  0.29844000  0.47667000  0.95566000  1.0
