# generated using pymatgen
data_CsH8C6NO2
_symmetry_space_group_name_H-M   'P 1'
_cell_length_a   7.50246000
_cell_length_b   7.91786000
_cell_length_c   13.77950000
_cell_angle_alpha   89.99990000
_cell_angle_beta   79.89500000
_cell_angle_gamma   89.99910000
_symmetry_Int_Tables_number   1
_chemical_formula_structural   CsH8C6NO2
_chemical_formula_sum   'Cs4 H32 C24 N4 O8'
_cell_volume   805.85209046
_cell_formula_units_Z   4
loop_
 _symmetry_equiv_pos_site_id
 _symmetry_equiv_pos_as_xyz
  1  'x, y, z'
loop_
 _atom_site_type_symbol
 _atom_site_label
 _atom_site_symmetry_multiplicity
 _atom_site_fract_x
 _atom_site_fract_y
 _atom_site_fract_z
 _atom_site_occupancy
  Cs  Cs0  1  0.78009000  0.41270000  0.42154000  1.0
  Cs  Cs1  1  0.71991000  0.91270000  0.57847000  1.0
  Cs  Cs2  1  0.21990000  0.58730000  0.57847000  1.0
  Cs  Cs3  1  0.28009000  0.08730000  0.42153000  1.0
  H  H4  1  0.57040000  0.28773000  0.21532000  1.0
  H  H5  1  0.92962000  0.78773000  0.78469000  1.0
  H  H6  1  0.42960000  0.71227000  0.78469000  1.0
  H  H7  1  0.07038000  0.21227000  0.21530000  1.0
  H  H8  1  0.49151000  0.29346000  0.04753000  1.0
  H  H9  1  0.00852000  0.79347000  0.95248000  1.0
  H  H10  1  0.50850000  0.70654000  0.95248000  1.0
  H  H11  1  0.99148000  0.20653000  0.04751000  1.0
  H  H12  1  0.22781000  0.46952000  0.01644000  1.0
  H  H13  1  0.27221000  0.96954000  0.98356000  1.0
  H  H14  1  0.77219000  0.53047000  0.98357000  1.0
  H  H15  1  0.72779000  0.03045000  0.01643000  1.0
  H  H16  1  0.89552000  0.65193000  0.21753000  1.0
  H  H17  1  0.60450000  0.15193000  0.78247000  1.0
  H  H18  1  0.10448000  0.34807000  0.78247000  1.0
  H  H19  1  0.39551000  0.84807000  0.21753000  1.0
  H  H20  1  0.95428000  0.62418000  0.08759000  1.0
  H  H21  1  0.54573000  0.12418000  0.91241000  1.0
  H  H22  1  0.04572000  0.37582000  0.91241000  1.0
  H  H23  1  0.45427000  0.87582000  0.08759000  1.0
  H  H24  1  0.04664000  0.79356000  0.14737000  1.0
  H  H25  1  0.45337000  0.29357000  0.85263000  1.0
  H  H26  1  0.95336000  0.20644000  0.85264000  1.0
  H  H27  1  0.54663000  0.70643000  0.14737000  1.0
  H  H28  1  0.02553000  0.16195000  0.61203000  1.0
  H  H29  1  0.47446000  0.66195000  0.38798000  1.0
  H  H30  1  0.97446000  0.83806000  0.38798000  1.0
  H  H31  1  0.52553000  0.33806000  0.61202000  1.0
  H  H32  1  0.90218000  0.32626000  0.64533000  1.0
  H  H33  1  0.59781000  0.82627000  0.35467000  1.0
  H  H34  1  0.09781000  0.67374000  0.35467000  1.0
  H  H35  1  0.40219000  0.17374000  0.64533000  1.0
  C  C36  1  0.35152000  0.45746000  0.27824000  1.0
  C  C37  1  0.14849000  0.95746000  0.72177000  1.0
  C  C38  1  0.64847000  0.54255000  0.72176000  1.0
  C  C39  1  0.85152000  0.04254000  0.27823000  1.0
  C  C40  1  0.45510000  0.36112000  0.20051000  1.0
  C  C41  1  0.04492000  0.86112000  0.79950000  1.0
  C  C42  1  0.54490000  0.63888000  0.79949000  1.0
  C  C43  1  0.95508000  0.13888000  0.20050000  1.0
  C  C44  1  0.41069000  0.36478000  0.10722000  1.0
  C  C45  1  0.08933000  0.86480000  0.89278000  1.0
  C  C46  1  0.58930000  0.63521000  0.89279000  1.0
  C  C47  1  0.91068000  0.13520000  0.10721000  1.0
  C  C48  1  0.26362000  0.46198000  0.08960000  1.0
  C  C49  1  0.23641000  0.96198000  0.91041000  1.0
  C  C50  1  0.73638000  0.53802000  0.91041000  1.0
  C  C51  1  0.76360000  0.03801000  0.08958000  1.0
  C  C52  1  0.16398000  0.55104000  0.16816000  1.0
  C  C53  1  0.33604000  0.05105000  0.83183000  1.0
  C  C54  1  0.83602000  0.44895000  0.83184000  1.0
  C  C55  1  0.66397000  0.94894000  0.16816000  1.0
  C  C56  1  0.00648000  0.65973000  0.15421000  1.0
  C  C57  1  0.49354000  0.15973000  0.84578000  1.0
  C  C58  1  0.99352000  0.34028000  0.84579000  1.0
  C  C59  1  0.50647000  0.84027000  0.15421000  1.0
  N  N60  1  0.20540000  0.54775000  0.25967000  1.0
  N  N61  1  0.29461000  0.04775000  0.74033000  1.0
  N  N62  1  0.79460000  0.45226000  0.74033000  1.0
  N  N63  1  0.70539000  0.95225000  0.25966000  1.0
  O  O64  1  0.39164000  0.46155000  0.36618000  1.0
  O  O65  1  0.10837000  0.96154000  0.63382000  1.0
  O  O66  1  0.60835000  0.53846000  0.63382000  1.0
  O  O67  1  0.89164000  0.03846000  0.36618000  1.0
  O  O68  1  0.96973000  0.26270000  0.58616000  1.0
  O  O69  1  0.53027000  0.76270000  0.41385000  1.0
  O  O70  1  0.03027000  0.73730000  0.41384000  1.0
  O  O71  1  0.46973000  0.23730000  0.58616000  1.0
