# generated using pymatgen
data_H12PbC8O5
_symmetry_space_group_name_H-M   'P 1'
_cell_length_a   7.24699000
_cell_length_b   7.86439000
_cell_length_c   8.63673000
_cell_angle_alpha   98.19450000
_cell_angle_beta   91.00800000
_cell_angle_gamma   90.01090000
_symmetry_Int_Tables_number   1
_chemical_formula_structural   H12PbC8O5
_chemical_formula_sum   'H24 Pb2 C16 O10'
_cell_volume   487.13153666
_cell_formula_units_Z   2
loop_
 _symmetry_equiv_pos_site_id
 _symmetry_equiv_pos_as_xyz
  1  'x, y, z'
loop_
 _atom_site_type_symbol
 _atom_site_label
 _atom_site_symmetry_multiplicity
 _atom_site_fract_x
 _atom_site_fract_y
 _atom_site_fract_z
 _atom_site_occupancy
  H  H0  1  0.35955000  0.34953000  0.71941000  1.0
  H  H1  1  0.64041000  0.65000000  0.28067000  1.0
  H  H2  1  0.13364000  0.35512000  0.71741000  1.0
  H  H3  1  0.86634000  0.64558000  0.28251000  1.0
  H  H4  1  0.25576000  0.92436000  0.47115000  1.0
  H  H5  1  0.74554000  0.07563000  0.52878000  1.0
  H  H6  1  0.95522000  0.81776000  0.53800000  1.0
  H  H7  1  0.45119000  0.19198000  0.45133000  1.0
  H  H8  1  0.04535000  0.18356000  0.46136000  1.0
  H  H9  1  0.54932000  0.80696000  0.54926000  1.0
  H  H10  1  0.05682000  0.66039000  0.63695000  1.0
  H  H11  1  0.56188000  0.34373000  0.35362000  1.0
  H  H12  1  0.94250000  0.34029000  0.36239000  1.0
  H  H13  1  0.43753000  0.65572000  0.64681000  1.0
  H  H14  1  0.95381000  0.90534000  0.82942000  1.0
  H  H15  1  0.45029000  0.09704000  0.16131000  1.0
  H  H16  1  0.04612000  0.09513000  0.17009000  1.0
  H  H17  1  0.54961000  0.90232000  0.83916000  1.0
  H  H18  1  0.07968000  0.05224000  0.73578000  1.0
  H  H19  1  0.57278000  0.95073000  0.26095000  1.0
  H  H20  1  0.92088000  0.94826000  0.26423000  1.0
  H  H21  1  0.42782000  0.04881000  0.73924000  1.0
  H  H22  1  0.25196000  0.00177000  0.96406000  1.0
  H  H23  1  0.74796000  0.99810000  0.03596000  1.0
  Pb  Pb24  1  0.25028000  0.41395000  0.07516000  1.0
  Pb  Pb25  1  0.74906000  0.58599000  0.92486000  1.0
  C  C26  1  0.25205000  0.79970000  0.51671000  1.0
  C  C27  1  0.74849000  0.20035000  0.48327000  1.0
  C  C28  1  0.07522000  0.79226000  0.61086000  1.0
  C  C29  1  0.57336000  0.21213000  0.38244000  1.0
  C  C30  1  0.92491000  0.20842000  0.38874000  1.0
  C  C31  1  0.42677000  0.78734000  0.61788000  1.0
  C  C32  1  0.07896000  0.91964000  0.76215000  1.0
  C  C33  1  0.57501000  0.08261000  0.23264000  1.0
  C  C34  1  0.92120000  0.08078000  0.23763000  1.0
  C  C35  1  0.42513000  0.91696000  0.76762000  1.0
  C  C36  1  0.25157000  0.89834000  0.86288000  1.0
  C  C37  1  0.74828000  0.10158000  0.13711000  1.0
  C  C38  1  0.25141000  0.66268000  0.37241000  1.0
  C  C39  1  0.74893000  0.33728000  0.62762000  1.0
  C  C40  1  0.25012000  0.73377000  0.93732000  1.0
  C  C41  1  0.74913000  0.26614000  0.06266000  1.0
  O  O42  1  0.40435000  0.61292000  0.31023000  1.0
  O  O43  1  0.90181000  0.40141000  0.68400000  1.0
  O  O44  1  0.59596000  0.38582000  0.69048000  1.0
  O  O45  1  0.09829000  0.59963000  0.31545000  1.0
  O  O46  1  0.09787000  0.67021000  0.97483000  1.0
  O  O47  1  0.59734000  0.33811000  0.03270000  1.0
  O  O48  1  0.90113000  0.32958000  0.02438000  1.0
  O  O49  1  0.40175000  0.66196000  0.96811000  1.0
  O  O50  1  0.24602000  0.32239000  0.77308000  1.0
  O  O51  1  0.75367000  0.67774000  0.22691000  1.0
