# generated using pymatgen
data_Zn2H22C25N9O2
_symmetry_space_group_name_H-M   'P 1'
_cell_length_a   14.68550000
_cell_length_b   15.31200000
_cell_length_c   23.61020000
_cell_angle_alpha   86.10160000
_cell_angle_beta   87.33260000
_cell_angle_gamma   76.81870000
_symmetry_Int_Tables_number   1
_chemical_formula_structural   Zn2H22C25N9O2
_chemical_formula_sum   'Zn8 H88 C100 N36 O8'
_cell_volume   5154.62290528
_cell_formula_units_Z   4
loop_
 _symmetry_equiv_pos_site_id
 _symmetry_equiv_pos_as_xyz
  1  'x, y, z'
loop_
 _atom_site_type_symbol
 _atom_site_label
 _atom_site_symmetry_multiplicity
 _atom_site_fract_x
 _atom_site_fract_y
 _atom_site_fract_z
 _atom_site_occupancy
  Zn  Zn0  1  0.92484000  0.91866000  0.41948000  1.0
  Zn  Zn1  1  0.04853000  0.06456000  0.41590000  1.0
  Zn  Zn2  1  0.42505000  0.44243000  0.92951000  1.0
  Zn  Zn3  1  0.57451000  0.57396000  0.93352000  1.0
  Zn  Zn4  1  0.00247000  0.10741000  0.55744000  1.0
  Zn  Zn5  1  0.93036000  0.93573000  0.56455000  1.0
  Zn  Zn6  1  0.56182000  0.56546000  0.07053000  1.0
  Zn  Zn7  1  0.42911000  0.42078000  0.06703000  1.0
  H  H8  1  0.89947000  0.22180000  0.65839000  1.0
  H  H9  1  0.13557000  0.81184000  0.53848000  1.0
  H  H10  1  0.49517000  0.64462000  0.19610000  1.0
  H  H11  1  0.58209000  0.23560000  0.06659000  1.0
  H  H12  1  0.07535000  0.26356000  0.37664000  1.0
  H  H13  1  0.92202000  0.70699000  0.41827000  1.0
  H  H14  1  0.44493000  0.77676000  0.91061000  1.0
  H  H15  1  0.35219000  0.25012000  0.90610000  1.0
  H  H16  1  0.72460000  0.04584000  0.58425000  1.0
  H  H17  1  0.22188000  0.10317000  0.59371000  1.0
  H  H18  1  0.23918000  0.56849000  0.09738000  1.0
  H  H19  1  0.75692000  0.63121000  0.09764000  1.0
  H  H20  1  0.97419000  0.30987000  0.54925000  1.0
  H  H21  1  0.01451000  0.72303000  0.58769000  1.0
  H  H22  1  0.40764000  0.75042000  0.09361000  1.0
  H  H23  1  0.37876000  0.22218000  0.08860000  1.0
  H  H24  1  0.71636000  0.02241000  0.40292000  1.0
  H  H25  1  0.26621000  0.99581000  0.42724000  1.0
  H  H26  1  0.24263000  0.60198000  0.91355000  1.0
  H  H27  1  0.77913000  0.63973000  0.91414000  1.0
  H  H28  1  0.81590000  0.97164000  0.70289000  1.0
  H  H29  1  0.19220000  0.93433000  0.68922000  1.0
  H  H30  1  0.32805000  0.44551000  0.19744000  1.0
  H  H31  1  0.76363000  0.41773000  0.08839000  1.0
  H  H32  1  0.93307000  0.20168000  0.32807000  1.0
  H  H33  1  0.09885000  0.74592000  0.42987000  1.0
  H  H34  1  0.54199000  0.67626000  0.80469000  1.0
  H  H35  1  0.56269000  0.25723000  0.90879000  1.0
  H  H36  1  0.39119000  0.17514000  0.44561000  1.0
  H  H37  1  0.56919000  0.92512000  0.56419000  1.0
  H  H38  1  0.92166000  0.79544000  0.02881000  1.0
  H  H39  1  0.08158000  0.48807000  0.98679000  1.0
  H  H40  1  0.50420000  0.19239000  0.53688000  1.0
  H  H41  1  0.42474000  0.06644000  0.60420000  1.0
  H  H42  1  0.04701000  0.67530000  0.10120000  1.0
  H  H43  1  0.95434000  0.53672000  0.08075000  1.0
  H  H44  1  0.45602000  0.90786000  0.47323000  1.0
  H  H45  1  0.53570000  0.03425000  0.40539000  1.0
  H  H46  1  0.95480000  0.60888000  0.91414000  1.0
  H  H47  1  0.04652000  0.74748000  0.93497000  1.0
  H  H48  1  0.24868000  0.61649000  0.39763000  1.0
  H  H49  1  0.97316000  0.10230000  0.16520000  1.0
  H  H50  1  0.70286000  0.12539000  0.88319000  1.0
  H  H51  1  0.48809000  0.73301000  0.70219000  1.0
  H  H52  1  0.31884000  0.75908000  0.32033000  1.0
  H  H53  1  0.79478000  0.20580000  0.22533000  1.0
  H  H54  1  0.82107000  0.26363000  0.84898000  1.0
  H  H55  1  0.30991000  0.66024000  0.72426000  1.0
  H  H56  1  0.03886000  0.45722000  0.42975000  1.0
  H  H57  1  0.96557000  0.53944000  0.50000000  1.0
  H  H58  1  0.42705000  0.93855000  0.97553000  1.0
  H  H59  1  0.35661000  0.07589000  0.95507000  1.0
  H  H60  1  0.85465000  0.88356000  0.28752000  1.0
  H  H61  1  0.78535000  0.97088000  0.24345000  1.0
  H  H62  1  0.90305000  0.92491000  0.22359000  1.0
  H  H63  1  0.22863000  0.01659000  0.31953000  1.0
  H  H64  1  0.32836000  0.93275000  0.34133000  1.0
  H  H65  1  0.26576000  0.91728000  0.28186000  1.0
  H  H66  1  0.28723000  0.47097000  0.83701000  1.0
  H  H67  1  0.25385000  0.55249000  0.77994000  1.0
  H  H68  1  0.33767000  0.45209000  0.76764000  1.0
  H  H69  1  0.79911000  0.47402000  0.88219000  1.0
  H  H70  1  0.80750000  0.45027000  0.95652000  1.0
  H  H71  1  0.85883000  0.36615000  0.90900000  1.0
  H  H72  1  0.88267000  0.99663000  0.86204000  1.0
  H  H73  1  0.79307000  0.96800000  0.82452000  1.0
  H  H74  1  0.89721000  0.98292000  0.78748000  1.0
  H  H75  1  0.46180000  0.86885000  0.63895000  1.0
  H  H76  1  0.34787000  0.92099000  0.61412000  1.0
  H  H77  1  0.37185000  0.91424000  0.68794000  1.0
  H  H78  1  0.46344000  0.52331000  0.37312000  1.0
  H  H79  1  0.37535000  0.46155000  0.37455000  1.0
  H  H80  1  0.45036000  0.46284000  0.31295000  1.0
  H  H81  1  0.99522000  0.23144000  0.09001000  1.0
  H  H82  1  0.89661000  0.30070000  0.05509000  1.0
  H  H83  1  0.92644000  0.32408000  0.12412000  1.0
  H  H84  1  0.25071000  0.37485000  0.54125000  1.0
  H  H85  1  0.15419000  0.37661000  0.58868000  1.0
  H  H86  1  0.18046000  0.29539000  0.53576000  1.0
  H  H87  1  0.25069000  0.53625000  0.48741000  1.0
  H  H88  1  0.17735000  0.63768000  0.51147000  1.0
  H  H89  1  0.21962000  0.54643000  0.56015000  1.0
  H  H90  1  0.18069000  0.95718000  0.07460000  1.0
  H  H91  1  0.25122000  0.84819000  0.06420000  1.0
  H  H92  1  0.27208000  0.90977000  0.12122000  1.0
  H  H93  1  0.22039000  0.06675000  0.11488000  1.0
  H  H94  1  0.33310000  0.08166000  0.12755000  1.0
  H  H95  1  0.25218000  0.16798000  0.09006000  1.0
  C  C96  1  0.88626000  0.01252000  0.29237000  1.0
  C  C97  1  0.19493000  0.89946000  0.36176000  1.0
  C  C98  1  0.38961000  0.54763000  0.81211000  1.0
  C  C99  1  0.71017000  0.38851000  0.91818000  1.0
  C  C100  1  0.88581000  0.15491000  0.66045000  1.0
  C  C101  1  0.13596000  0.85235000  0.57440000  1.0
  C  C102  1  0.46351000  0.58926000  0.18814000  1.0
  C  C103  1  0.61524000  0.29176000  0.06870000  1.0
  C  C104  1  0.04630000  0.26066000  0.41975000  1.0
  C  C105  1  0.93672000  0.72685000  0.45963000  1.0
  C  C106  1  0.44307000  0.75500000  0.95537000  1.0
  C  C107  1  0.36076000  0.25779000  0.95086000  1.0
  C  C108  1  0.73859000  0.03614000  0.53929000  1.0
  C  C109  1  0.21690000  0.07954000  0.55189000  1.0
  C  C110  1  0.25525000  0.56812000  0.05200000  1.0
  C  C111  1  0.74731000  0.63093000  0.05228000  1.0
  C  C112  1  0.99544000  0.28302000  0.50796000  1.0
  C  C113  1  0.98514000  0.73521000  0.54571000  1.0
  C  C114  1  0.42262000  0.74151000  0.04859000  1.0
  C  C115  1  0.37279000  0.24344000  0.04389000  1.0
  C  C116  1  0.73462000  0.02437000  0.44683000  1.0
  C  C117  1  0.23889000  0.02418000  0.46706000  1.0
  C  C118  1  0.25706000  0.58549000  0.95821000  1.0
  C  C119  1  0.75815000  0.63570000  0.95879000  1.0
  C  C120  1  0.84428000  0.02653000  0.68360000  1.0
  C  C121  1  0.16361000  0.91632000  0.65114000  1.0
  C  C122  1  0.37767000  0.48799000  0.18875000  1.0
  C  C123  1  0.70789000  0.38482000  0.08016000  1.0
  C  C124  1  0.92117000  0.13535000  0.32246000  1.0
  C  C125  1  0.12276000  0.80353000  0.41066000  1.0
  C  C126  1  0.49753000  0.62856000  0.81239000  1.0
  C  C127  1  0.60295000  0.30703000  0.91483000  1.0
  C  C128  1  0.88981000  0.10196000  0.27499000  1.0
  C  C129  1  0.20405000  0.80679000  0.37732000  1.0
  C  C130  1  0.42330000  0.61623000  0.78037000  1.0
  C  C131  1  0.69865000  0.30356000  0.90342000  1.0
  C  C132  1  0.84372000  0.11082000  0.70483000  1.0
  C  C133  1  0.20302000  0.84479000  0.61583000  1.0
  C  C134  1  0.39207000  0.55886000  0.21940000  1.0
  C  C135  1  0.70637000  0.29251000  0.08468000  1.0
  C  C136  1  0.04196000  0.32046000  0.46261000  1.0
  C  C137  1  0.98494000  0.67384000  0.50433000  1.0
  C  C138  1  0.40878000  0.80636000  0.00250000  1.0
  C  C139  1  0.35485000  0.19645000  0.99768000  1.0
  C  C140  1  0.67584000  0.04228000  0.49536000  1.0
  C  C141  1  0.28728000  0.04928000  0.51092000  1.0
  C  C142  1  0.19841000  0.60657000  0.00645000  1.0
  C  C143  1  0.80801000  0.64475000  0.00649000  1.0
  C  C144  1  0.49337000  0.12903000  0.52266000  1.0
  C  C145  1  0.44948000  0.05932000  0.55988000  1.0
  C  C146  1  0.02661000  0.65980000  0.05964000  1.0
  C  C147  1  0.97637000  0.58305000  0.04833000  1.0
  C  C148  1  0.43230000  0.11955000  0.47182000  1.0
  C  C149  1  0.52845000  0.98081000  0.53789000  1.0
  C  C150  1  0.95759000  0.72682000  0.01940000  1.0
  C  C151  1  0.04346000  0.55608000  0.99607000  1.0
  C  C152  1  0.38723000  0.04941000  0.50929000  1.0
  C  C153  1  0.57400000  0.05019000  0.50023000  1.0
  C  C154  1  0.90654000  0.64906000  0.00767000  1.0
  C  C155  1  0.09578000  0.63258000  0.00759000  1.0
  C  C156  1  0.46763000  0.97124000  0.48701000  1.0
  C  C157  1  0.51112000  0.04111000  0.44974000  1.0
  C  C158  1  0.97596000  0.62332000  0.95577000  1.0
  C  C159  1  0.02630000  0.69999000  0.96725000  1.0
  C  C160  1  0.28521000  0.64578000  0.36243000  1.0
  C  C161  1  0.90439000  0.14759000  0.17078000  1.0
  C  C162  1  0.75367000  0.15641000  0.85862000  1.0
  C  C163  1  0.41751000  0.72434000  0.69542000  1.0
  C  C164  1  0.27355000  0.73594000  0.35334000  1.0
  C  C165  1  0.85979000  0.15397000  0.22214000  1.0
  C  C166  1  0.76354000  0.23898000  0.87070000  1.0
  C  C167  1  0.38133000  0.66643000  0.73094000  1.0
  C  C168  1  0.80229000  0.10666000  0.81107000  1.0
  C  C169  1  0.36215000  0.78766000  0.65496000  1.0
  C  C170  1  0.34371000  0.58496000  0.32333000  1.0
  C  C171  1  0.86406000  0.20918000  0.12331000  1.0
  C  C172  1  0.80350000  0.14731000  0.75816000  1.0
  C  C173  1  0.28497000  0.77452000  0.62902000  1.0
  C  C174  1  0.33558000  0.60238000  0.26655000  1.0
  C  C175  1  0.77282000  0.21758000  0.11080000  1.0
  C  C176  1  0.11856000  0.43046000  0.50308000  1.0
  C  C177  1  0.10859000  0.52765000  0.50816000  1.0
  C  C178  1  0.31816000  0.95653000  0.03754000  1.0
  C  C179  1  0.31307000  0.05421000  0.04024000  1.0
  C  C180  1  0.06898000  0.40585000  0.46227000  1.0
  C  C181  1  0.01953000  0.57686000  0.50488000  1.0
  C  C182  1  0.38282000  0.90446000  0.00347000  1.0
  C  C183  1  0.34069000  0.10568000  0.99622000  1.0
  C  C184  1  0.85549000  0.94437000  0.26023000  1.0
  C  C185  1  0.25781000  0.94392000  0.32440000  1.0
  C  C186  1  0.31319000  0.50360000  0.79862000  1.0
  C  C187  1  0.79826000  0.42158000  0.91636000  1.0
  C  C188  1  0.84666000  0.00834000  0.82154000  1.0
  C  C189  1  0.38611000  0.87844000  0.64843000  1.0
  C  C190  1  0.41250000  0.50365000  0.34671000  1.0
  C  C191  1  0.92280000  0.27006000  0.09627000  1.0
  C  C192  1  0.17842000  0.36537000  0.54435000  1.0
  C  C193  1  0.19297000  0.56411000  0.51713000  1.0
  C  C194  1  0.25249000  0.91568000  0.07641000  1.0
  C  C195  1  0.27786000  0.09494000  0.09591000  1.0
  N  N196  1  0.91493000  0.99573000  0.34642000  1.0
  N  N197  1  0.11437000  0.94581000  0.38425000  1.0
  N  N198  1  0.44065000  0.52216000  0.85866000  1.0
  N  N199  1  0.62632000  0.43823000  0.93560000  1.0
  N  N200  1  0.90940000  0.10028000  0.61718000  1.0
  N  N201  1  0.06296000  0.92136000  0.58600000  1.0
  N  N202  1  0.48972000  0.54006000  0.14278000  1.0
  N  N203  1  0.56718000  0.37613000  0.05734000  1.0
  N  N204  1  0.00799000  0.19182000  0.43892000  1.0
  N  N205  1  0.91155000  0.81349000  0.47272000  1.0
  N  N206  1  0.47461000  0.66783000  0.97244000  1.0
  N  N207  1  0.37925000  0.33412000  0.96786000  1.0
  N  N208  1  0.82792000  0.01398000  0.51822000  1.0
  N  N209  1  0.13341000  0.07417000  0.53245000  1.0
  N  N210  1  0.34025000  0.52564000  0.03177000  1.0
  N  N211  1  0.66823000  0.61463000  0.03304000  1.0
  N  N212  1  0.97524000  0.20561000  0.49359000  1.0
  N  N213  1  0.94097000  0.81860000  0.52662000  1.0
  N  N214  1  0.46315000  0.65967000  0.03000000  1.0
  N  N215  1  0.38689000  0.32472000  0.02593000  1.0
  N  N216  1  0.82524000  0.00682000  0.46127000  1.0
  N  N217  1  0.14639000  0.04005000  0.48027000  1.0
  N  N218  1  0.34138000  0.53621000  0.97425000  1.0
  N  N219  1  0.67504000  0.61707000  0.97479000  1.0
  N  N220  1  0.88401000  0.02105000  0.63140000  1.0
  N  N221  1  0.08037000  0.96151000  0.63368000  1.0
  N  N222  1  0.43665000  0.47667000  0.14313000  1.0
  N  N223  1  0.62394000  0.43340000  0.06388000  1.0
  N  N224  1  0.93740000  0.07071000  0.36473000  1.0
  N  N225  1  0.06940000  0.88711000  0.41444000  1.0
  N  N226  1  0.50714000  0.57291000  0.85917000  1.0
  N  N227  1  0.56117000  0.38745000  0.93350000  1.0
  N  N228  1  0.75301000  0.24352000  0.74917000  1.0
  N  N229  1  0.27435000  0.68168000  0.62388000  1.0
  N  N230  1  0.25821000  0.67714000  0.24413000  1.0
  N  N231  1  0.72951000  0.14135000  0.13255000  1.0
  O  O232  1  0.80199000  0.29914000  0.73764000  1.0
  O  O233  1  0.66662000  0.26112000  0.75063000  1.0
  O  O234  1  0.19648000  0.66467000  0.63722000  1.0
  O  O235  1  0.34182000  0.62581000  0.60459000  1.0
  O  O236  1  0.28170000  0.74086000  0.21632000  1.0
  O  O237  1  0.17674000  0.66813000  0.25103000  1.0
  O  O238  1  0.65601000  0.15881000  0.16197000  1.0
  O  O239  1  0.76850000  0.06523000  0.11808000  1.0
