# generated using pymatgen
data_CuH7C11IN2O
_symmetry_space_group_name_H-M   'P 1'
_cell_length_a   4.26608000
_cell_length_b   13.87970000
_cell_length_c   17.59140000
_cell_angle_alpha   90.00030000
_cell_angle_beta   90.00010000
_cell_angle_gamma   97.58770000
_symmetry_Int_Tables_number   1
_chemical_formula_structural   CuH7C11IN2O
_chemical_formula_sum   'Cu4 H28 C44 I4 N8 O4'
_cell_volume   1032.49988129
_cell_formula_units_Z   4
loop_
 _symmetry_equiv_pos_site_id
 _symmetry_equiv_pos_as_xyz
  1  'x, y, z'
loop_
 _atom_site_type_symbol
 _atom_site_label
 _atom_site_symmetry_multiplicity
 _atom_site_fract_x
 _atom_site_fract_y
 _atom_site_fract_z
 _atom_site_occupancy
  Cu  Cu0  1  0.82508000  0.49142000  0.55937000  1.0
  Cu  Cu1  1  0.67492000  0.00858000  0.05937000  1.0
  Cu  Cu2  1  0.17492000  0.50858000  0.44063000  1.0
  Cu  Cu3  1  0.32508000  0.99142000  0.94063000  1.0
  H  H4  1  0.48581000  0.43285000  0.70024000  1.0
  H  H5  1  0.01419000  0.06715000  0.20024000  1.0
  H  H6  1  0.51421000  0.56715000  0.29976000  1.0
  H  H7  1  0.98580000  0.93285000  0.79976000  1.0
  H  H8  1  0.21800000  0.76560000  0.84674000  1.0
  H  H9  1  0.28200000  0.73440000  0.34674000  1.0
  H  H10  1  0.78201000  0.23440000  0.15326000  1.0
  H  H11  1  0.71800000  0.26560000  0.65326000  1.0
  H  H12  1  0.58319000  0.85506000  0.75280000  1.0
  H  H13  1  0.91680000  0.64494000  0.25279000  1.0
  H  H14  1  0.41680000  0.14494000  0.24720000  1.0
  H  H15  1  0.08320000  0.35506000  0.74721000  1.0
  H  H16  1  0.61287000  0.79397000  0.62064000  1.0
  H  H17  1  0.88711000  0.70602000  0.12064000  1.0
  H  H18  1  0.38712000  0.20603000  0.37936000  1.0
  H  H19  1  0.11288000  0.29397000  0.87936000  1.0
  H  H20  1  0.25915000  0.64598000  0.57928000  1.0
  H  H21  1  0.24084000  0.85401000  0.07928000  1.0
  H  H22  1  0.74084000  0.35402000  0.42072000  1.0
  H  H23  1  0.75915000  0.14598000  0.92072000  1.0
  H  H24  1  0.31205000  0.62713000  0.91785000  1.0
  H  H25  1  0.18796000  0.87287000  0.41785000  1.0
  H  H26  1  0.68795000  0.37287000  0.08215000  1.0
  H  H27  1  0.81204000  0.12713000  0.58215000  1.0
  H  H28  1  0.66252000  0.35172000  0.94090000  1.0
  H  H29  1  0.83747000  0.14827000  0.44090000  1.0
  H  H30  1  0.33748000  0.64828000  0.05910000  1.0
  H  H31  1  0.16252000  0.85172000  0.55910000  1.0
  C  C32  1  0.64836000  0.49588000  0.71843000  1.0
  C  C33  1  0.85164000  0.00411000  0.21843000  1.0
  C  C34  1  0.35165000  0.50411000  0.28157000  1.0
  C  C35  1  0.14836000  0.99589000  0.78157000  1.0
  C  C36  1  0.65928000  0.52744000  0.79553000  1.0
  C  C37  1  0.84072000  0.97256000  0.29553000  1.0
  C  C38  1  0.34072000  0.47256000  0.20446000  1.0
  C  C39  1  0.15928000  0.02744000  0.70446000  1.0
  C  C40  1  0.02984000  0.65523000  0.76636000  1.0
  C  C41  1  0.47016000  0.84477000  0.26636000  1.0
  C  C42  1  0.97017000  0.34476000  0.23364000  1.0
  C  C43  1  0.52984000  0.15523000  0.73364000  1.0
  C  C44  1  0.22722000  0.74065000  0.78809000  1.0
  C  C45  1  0.27277000  0.75935000  0.28809000  1.0
  C  C46  1  0.77278000  0.25935000  0.21191000  1.0
  C  C47  1  0.72722000  0.24065000  0.71191000  1.0
  C  C48  1  0.42950000  0.78984000  0.73570000  1.0
  C  C49  1  0.07049000  0.71016000  0.23570000  1.0
  C  C50  1  0.57050000  0.21016000  0.26430000  1.0
  C  C51  1  0.92951000  0.28984000  0.76430000  1.0
  C  C52  1  0.44431000  0.75576000  0.66038000  1.0
  C  C53  1  0.05568000  0.74424000  0.16038000  1.0
  C  C54  1  0.55568000  0.24424000  0.33962000  1.0
  C  C55  1  0.94432000  0.25576000  0.83962000  1.0
  C  C56  1  0.24942000  0.67357000  0.63720000  1.0
  C  C57  1  0.25058000  0.82643000  0.13719000  1.0
  C  C58  1  0.75058000  0.32643000  0.36280000  1.0
  C  C59  1  0.74942000  0.17357000  0.86280000  1.0
  C  C60  1  0.03718000  0.62277000  0.68923000  1.0
  C  C61  1  0.46282000  0.87723000  0.18923000  1.0
  C  C62  1  0.96283000  0.37723000  0.31077000  1.0
  C  C63  1  0.53718000  0.12277000  0.81077000  1.0
  C  C64  1  0.39577000  0.57224000  0.95380000  1.0
  C  C65  1  0.10422000  0.92776000  0.45380000  1.0
  C  C66  1  0.60423000  0.42776000  0.04620000  1.0
  C  C67  1  0.89577000  0.07224000  0.54620000  1.0
  C  C68  1  0.48850000  0.48841000  0.92246000  1.0
  C  C69  1  0.01150000  0.01159000  0.42246000  1.0
  C  C70  1  0.51149000  0.51159000  0.07754000  1.0
  C  C71  1  0.98850000  0.98841000  0.57754000  1.0
  C  C72  1  0.59175000  0.41631000  0.96750000  1.0
  C  C73  1  0.90825000  0.08369000  0.46750000  1.0
  C  C74  1  0.40826000  0.58369000  0.03251000  1.0
  C  C75  1  0.09175000  0.91631000  0.53250000  1.0
  I  I76  1  0.26008000  0.37434000  0.54420000  1.0
  I  I77  1  0.23992000  0.12566000  0.04420000  1.0
  I  I78  1  0.73993000  0.62566000  0.45580000  1.0
  I  I79  1  0.76008000  0.87434000  0.95580000  1.0
  N  N80  1  0.83601000  0.54173000  0.66645000  1.0
  N  N81  1  0.66399000  0.95827000  0.16645000  1.0
  N  N82  1  0.16400000  0.45827000  0.33355000  1.0
  N  N83  1  0.33600000  0.04173000  0.83355000  1.0
  N  N84  1  0.84028000  0.60486000  0.81943000  1.0
  N  N85  1  0.65971000  0.89514000  0.31943000  1.0
  N  N86  1  0.15972000  0.39514000  0.18057000  1.0
  N  N87  1  0.34029000  0.10486000  0.68057000  1.0
  O  O88  1  0.46676000  0.47001000  0.84371000  1.0
  O  O89  1  0.03325000  0.02999000  0.34371000  1.0
  O  O90  1  0.53324000  0.52999000  0.15629000  1.0
  O  O91  1  0.96675000  0.97001000  0.65629000  1.0
