# generated using pymatgen
data_ZnH17C13SN3O7
_symmetry_space_group_name_H-M   'P 1'
_cell_length_a   7.48332000
_cell_length_b   10.10810000
_cell_length_c   13.06280000
_cell_angle_alpha   69.42720000
_cell_angle_beta   82.90170000
_cell_angle_gamma   68.60160000
_symmetry_Int_Tables_number   1
_chemical_formula_structural   ZnH17C13SN3O7
_chemical_formula_sum   'Zn2 H34 C26 S2 N6 O14'
_cell_volume   861.30181866
_cell_formula_units_Z   2
loop_
 _symmetry_equiv_pos_site_id
 _symmetry_equiv_pos_as_xyz
  1  'x, y, z'
loop_
 _atom_site_type_symbol
 _atom_site_label
 _atom_site_symmetry_multiplicity
 _atom_site_fract_x
 _atom_site_fract_y
 _atom_site_fract_z
 _atom_site_occupancy
  Zn  Zn0  1  0.87650000  0.34119000  0.53061000  1.0
  Zn  Zn1  1  0.12656000  0.74187000  0.60752000  1.0
  H  H2  1  0.23936000  0.31113000  0.48255000  1.0
  H  H3  1  0.19077000  0.34995000  0.59712000  1.0
  H  H4  1  0.75517000  0.89432000  0.64700000  1.0
  H  H5  1  0.83245000  0.97851000  0.52922000  1.0
  H  H6  1  0.41039000  0.08008000  0.58285000  1.0
  H  H7  1  0.31409000  0.95993000  0.77717000  1.0
  H  H8  1  0.14000000  0.14019000  0.77086000  1.0
  H  H9  1  0.58550000  0.82446000  0.55435000  1.0
  H  H10  1  0.70202000  0.81883000  0.35956000  1.0
  H  H11  1  0.86471000  0.90586000  0.37138000  1.0
  H  H12  1  0.08579000  0.20649000  0.36044000  1.0
  H  H13  1  0.16923000  0.28021000  0.16535000  1.0
  H  H14  1  0.76587000  0.72924000  0.13075000  1.0
  H  H15  1  0.70529000  0.63496000  0.33037000  1.0
  H  H16  1  0.10708000  0.34028000  0.99351000  1.0
  H  H17  1  0.16563000  0.43421000  0.79524000  1.0
  H  H18  1  0.00475000  0.87331000  0.79245000  1.0
  H  H19  1  0.94142000  0.79935000  0.99151000  1.0
  H  H20  1  0.60196000  0.26521000  0.47842000  1.0
  H  H21  1  0.53699000  0.30788000  0.58717000  1.0
  H  H22  1  0.21694000  0.78354000  0.37750000  1.0
  H  H23  1  0.24894000  0.90380000  0.41984000  1.0
  H  H24  1  0.51490000  0.58831000  0.58293000  1.0
  H  H25  1  0.42216000  0.47641000  0.67037000  1.0
  H  H26  1  0.77675000  0.32499000  0.75270000  1.0
  H  H27  1  0.77962000  0.17979000  0.72567000  1.0
  H  H28  1  0.35796000  0.49810000  0.37227000  1.0
  H  H29  1  0.49211000  0.38676000  0.22686000  1.0
  H  H30  1  0.35860000  0.84338000  0.99843000  1.0
  H  H31  1  0.22959000  0.93267000  0.15469000  1.0
  H  H32  1  0.50453000  0.31803000  0.09510000  1.0
  H  H33  1  0.64392000  0.22159000  0.94400000  1.0
  H  H34  1  0.70436000  0.62694000  0.75152000  1.0
  H  H35  1  0.56794000  0.74364000  0.89423000  1.0
  C  C36  1  0.15301000  0.03372000  0.59377000  1.0
  C  C37  1  0.26550000  0.12223000  0.61503000  1.0
  C  C38  1  0.27772000  0.08214000  0.73884000  1.0
  C  C39  1  0.84377000  0.64149000  0.54871000  1.0
  C  C40  1  0.73353000  0.81188000  0.52502000  1.0
  C  C41  1  0.72854000  0.88779000  0.40046000  1.0
  C  C42  1  0.01759000  0.32129000  0.30687000  1.0
  C  C43  1  0.06180000  0.36372000  0.19635000  1.0
  C  C44  1  0.97442000  0.51292000  0.12906000  1.0
  C  C45  1  0.84352000  0.61278000  0.17843000  1.0
  C  C46  1  0.80799000  0.56131000  0.28974000  1.0
  C  C47  1  0.01681000  0.56222000  0.01120000  1.0
  C  C48  1  0.08337000  0.45977000  0.95351000  1.0
  C  C49  1  0.11534000  0.51161000  0.84177000  1.0
  C  C50  1  0.02628000  0.75614000  0.84037000  1.0
  C  C51  1  0.98967000  0.71387000  0.95185000  1.0
  C  C52  1  0.35510000  0.57052000  0.28740000  1.0
  C  C53  1  0.43131000  0.50883000  0.20500000  1.0
  C  C54  1  0.43508000  0.60484000  0.09727000  1.0
  C  C55  1  0.35968000  0.76068000  0.07913000  1.0
  C  C56  1  0.28640000  0.81212000  0.16685000  1.0
  C  C57  1  0.51920000  0.54249000  0.00829000  1.0
  C  C58  1  0.54533000  0.39282000  0.02072000  1.0
  C  C59  1  0.62680000  0.33669000  0.93623000  1.0
  C  C60  1  0.65739000  0.56244000  0.82892000  1.0
  C  C61  1  0.57798000  0.62815000  0.90898000  1.0
  S  S62  1  0.45609000  0.12949000  0.78277000  1.0
  S  S63  1  0.53700000  0.06568000  0.35336000  1.0
  N  N64  1  0.17425000  0.28460000  0.55675000  1.0
  N  N65  1  0.82700000  0.87564000  0.57858000  1.0
  N  N66  1  0.89464000  0.41836000  0.35387000  1.0
  N  N67  1  0.08689000  0.65750000  0.78540000  1.0
  N  N68  1  0.28317000  0.71944000  0.26974000  1.0
  N  N69  1  0.68299000  0.41907000  0.84146000  1.0
  O  O70  1  0.99273000  0.10469000  0.54461000  1.0
  O  O71  1  0.23305000  0.89163000  0.63108000  1.0
  O  O72  1  0.42791000  0.10253000  0.89979000  1.0
  O  O73  1  0.64607000  0.03766000  0.75287000  1.0
  O  O74  1  0.41464000  0.29189000  0.71653000  1.0
  O  O75  1  0.01545000  0.58511000  0.58158000  1.0
  O  O76  1  0.75064000  0.56826000  0.52948000  1.0
  O  O77  1  0.36077000  0.03314000  0.39737000  1.0
  O  O78  1  0.54723000  0.11504000  0.23409000  1.0
  O  O79  1  0.57048000  0.16764000  0.40101000  1.0
  O  O80  1  0.59835000  0.33683000  0.51509000  1.0
  O  O81  1  0.84155000  0.25604000  0.70742000  1.0
  O  O82  1  0.17603000  0.83462000  0.43501000  1.0
  O  O83  1  0.40512000  0.58327000  0.63298000  1.0
