# generated using pymatgen
data_CoH18C23(N2O3)2
_symmetry_space_group_name_H-M   'P 1'
_cell_length_a   8.07308000
_cell_length_b   9.99200000
_cell_length_c   12.88080000
_cell_angle_alpha   96.67690000
_cell_angle_beta   100.05400000
_cell_angle_gamma   92.02670000
_symmetry_Int_Tables_number   1
_chemical_formula_structural   CoH18C23(N2O3)2
_chemical_formula_sum   'Co2 H36 C46 N8 O12'
_cell_volume   1014.50316309
_cell_formula_units_Z   2
loop_
 _symmetry_equiv_pos_site_id
 _symmetry_equiv_pos_as_xyz
  1  'x, y, z'
loop_
 _atom_site_type_symbol
 _atom_site_label
 _atom_site_symmetry_multiplicity
 _atom_site_fract_x
 _atom_site_fract_y
 _atom_site_fract_z
 _atom_site_occupancy
  Co  Co0  1  0.01023000  0.19099000  0.09775000  1.0
  Co  Co1  1  0.98974000  0.80903000  0.90225000  1.0
  H  H2  1  0.99917000  0.69349000  0.63397000  1.0
  H  H3  1  0.00086000  0.30655000  0.36606000  1.0
  H  H4  1  0.79772000  0.40748000  0.95951000  1.0
  H  H5  1  0.20225000  0.59250000  0.04045000  1.0
  H  H6  1  0.65742000  0.00601000  0.99210000  1.0
  H  H7  1  0.34259000  0.99399000  0.00788000  1.0
  H  H8  1  0.41709000  0.09862000  0.83899000  1.0
  H  H9  1  0.58289000  0.90135000  0.16100000  1.0
  H  H10  1  0.56904000  0.46429000  0.82181000  1.0
  H  H11  1  0.43090000  0.53570000  0.17818000  1.0
  H  H12  1  0.37552000  0.36743000  0.79710000  1.0
  H  H13  1  0.62443000  0.63252000  0.20288000  1.0
  H  H14  1  0.38728000  0.44986000  0.61009000  1.0
  H  H15  1  0.61272000  0.55013000  0.38989000  1.0
  H  H16  1  0.42440000  0.35899000  0.43013000  1.0
  H  H17  1  0.57562000  0.64102000  0.56986000  1.0
  H  H18  1  0.73962000  0.05866000  0.56069000  1.0
  H  H19  1  0.26040000  0.94135000  0.43930000  1.0
  H  H20  1  0.70637000  0.15171000  0.74150000  1.0
  H  H21  1  0.29363000  0.84830000  0.25849000  1.0
  H  H22  1  0.73691000  0.16465000  0.36214000  1.0
  H  H23  1  0.26309000  0.83536000  0.63784000  1.0
  H  H24  1  0.59998000  0.02672000  0.37231000  1.0
  H  H25  1  0.40002000  0.97329000  0.62768000  1.0
  H  H26  1  0.25167000  0.10514000  0.31713000  1.0
  H  H27  1  0.74832000  0.89494000  0.68291000  1.0
  H  H28  1  0.36837000  0.30095000  0.06411000  1.0
  H  H29  1  0.63159000  0.69895000  0.93584000  1.0
  H  H30  1  0.66773000  0.27125000  0.20473000  1.0
  H  H31  1  0.33225000  0.72866000  0.79521000  1.0
  H  H32  1  0.96944000  0.52929000  0.39630000  1.0
  H  H33  1  0.03065000  0.47074000  0.60375000  1.0
  H  H34  1  0.91334000  0.94512000  0.34757000  1.0
  H  H35  1  0.08667000  0.05490000  0.65244000  1.0
  H  H36  1  0.94610000  0.64645000  0.08319000  1.0
  H  H37  1  0.05391000  0.35354000  0.91683000  1.0
  C  C38  1  0.72746000  0.31101000  0.95097000  1.0
  C  C39  1  0.27252000  0.68897000  0.04900000  1.0
  C  C40  1  0.64956000  0.10417000  0.96450000  1.0
  C  C41  1  0.35045000  0.89581000  0.03549000  1.0
  C  C42  1  0.53009000  0.14810000  0.88819000  1.0
  C  C43  1  0.46989000  0.85188000  0.11179000  1.0
  C  C44  1  0.51156000  0.36131000  0.79838000  1.0
  C  C45  1  0.48840000  0.63866000  0.20160000  1.0
  C  C46  1  0.54244000  0.30651000  0.68900000  1.0
  C  C47  1  0.45755000  0.69348000  0.31098000  1.0
  C  C48  1  0.46621000  0.36452000  0.60004000  1.0
  C  C49  1  0.53380000  0.63548000  0.39995000  1.0
  C  C50  1  0.48708000  0.31283000  0.49800000  1.0
  C  C51  1  0.51292000  0.68718000  0.50199000  1.0
  C  C52  1  0.58368000  0.20104000  0.48297000  1.0
  C  C53  1  0.41633000  0.79897000  0.51702000  1.0
  C  C54  1  0.66255000  0.14486000  0.57187000  1.0
  C  C55  1  0.33747000  0.85515000  0.42811000  1.0
  C  C56  1  0.64322000  0.19755000  0.67372000  1.0
  C  C57  1  0.35678000  0.80244000  0.32626000  1.0
  C  C58  1  0.60982000  0.13727000  0.37517000  1.0
  C  C59  1  0.39018000  0.86274000  0.62482000  1.0
  C  C60  1  0.32227000  0.15246000  0.26548000  1.0
  C  C61  1  0.67770000  0.84757000  0.73454000  1.0
  C  C62  1  0.38888000  0.25750000  0.13825000  1.0
  C  C63  1  0.61108000  0.74245000  0.86172000  1.0
  C  C64  1  0.53697000  0.24357000  0.20615000  1.0
  C  C65  1  0.46300000  0.75637000  0.79382000  1.0
  C  C66  1  0.96096000  0.57237000  0.23499000  1.0
  C  C67  1  0.03905000  0.42763000  0.76505000  1.0
  C  C68  1  0.95604000  0.60614000  0.34272000  1.0
  C  C69  1  0.04402000  0.39389000  0.65732000  1.0
  C  C70  1  0.93603000  0.73972000  0.38284000  1.0
  C  C71  1  0.06404000  0.26030000  0.61719000  1.0
  C  C72  1  0.92154000  0.84045000  0.31519000  1.0
  C  C73  1  0.07850000  0.15957000  0.68484000  1.0
  C  C74  1  0.92653000  0.80716000  0.20700000  1.0
  C  C75  1  0.07351000  0.19285000  0.79302000  1.0
  C  C76  1  0.94428000  0.67287000  0.16731000  1.0
  C  C77  1  0.05576000  0.32713000  0.83272000  1.0
  C  C78  1  0.98522000  0.43121000  0.19070000  1.0
  C  C79  1  0.01474000  0.56880000  0.80933000  1.0
  C  C80  1  0.93643000  0.77512000  0.49878000  1.0
  C  C81  1  0.06362000  0.22491000  0.50125000  1.0
  C  C82  1  0.92244000  0.91291000  0.13285000  1.0
  C  C83  1  0.07759000  0.08710000  0.86716000  1.0
  N  N84  1  0.77196000  0.20642000  0.00334000  1.0
  N  N85  1  0.22804000  0.79357000  0.99663000  1.0
  N  N86  1  0.58100000  0.27989000  0.88058000  1.0
  N  N87  1  0.41898000  0.72009000  0.11940000  1.0
  N  N88  1  0.49267000  0.17661000  0.28612000  1.0
  N  N89  1  0.50730000  0.82338000  0.71387000  1.0
  N  N90  1  0.25646000  0.20047000  0.17614000  1.0
  N  N91  1  0.74350000  0.79954000  0.82387000  1.0
  O  O92  1  0.03322000  0.41076000  0.10144000  1.0
  O  O93  1  0.96660000  0.58922000  0.89853000  1.0
  O  O94  1  0.95383000  0.33089000  0.23969000  1.0
  O  O95  1  0.04620000  0.66912000  0.76036000  1.0
  O  O96  1  0.99343000  0.67553000  0.55447000  1.0
  O  O97  1  0.00662000  0.32452000  0.44557000  1.0
  O  O98  1  0.89244000  0.88301000  0.53834000  1.0
  O  O99  1  0.10761000  0.11703000  0.46169000  1.0
  O  O100  1  0.93610000  0.03655000  0.17295000  1.0
  O  O101  1  0.06389000  0.96346000  0.82706000  1.0
  O  O102  1  0.90377000  0.87328000  0.03371000  1.0
  O  O103  1  0.09629000  0.12671000  0.96630000  1.0
