# generated using pymatgen
data_AgH8C7SNO3
_symmetry_space_group_name_H-M   'P 1'
_cell_length_a   5.40041000
_cell_length_b   8.08936000
_cell_length_c   10.12340000
_cell_angle_alpha   101.38310000
_cell_angle_beta   91.38370000
_cell_angle_gamma   95.85110000
_symmetry_Int_Tables_number   1
_chemical_formula_structural   AgH8C7SNO3
_chemical_formula_sum   'Ag2 H16 C14 S2 N2 O6'
_cell_volume   430.84685719
_cell_formula_units_Z   2
loop_
 _symmetry_equiv_pos_site_id
 _symmetry_equiv_pos_as_xyz
  1  'x, y, z'
loop_
 _atom_site_type_symbol
 _atom_site_label
 _atom_site_symmetry_multiplicity
 _atom_site_fract_x
 _atom_site_fract_y
 _atom_site_fract_z
 _atom_site_occupancy
  Ag  Ag0  1  0.22115000  0.71602000  0.22613000  1.0
  Ag  Ag1  1  0.77885000  0.28398000  0.77387000  1.0
  H  H2  1  0.38573000  0.89536000  0.00008000  1.0
  H  H3  1  0.61429000  0.10462000  0.99992000  1.0
  H  H4  1  0.74408000  0.59850000  0.05799000  1.0
  H  H5  1  0.25591000  0.40150000  0.94201000  1.0
  H  H6  1  0.20955000  0.95280000  0.78444000  1.0
  H  H7  1  0.79046000  0.04719000  0.21557000  1.0
  H  H8  1  0.76301000  0.55512000  0.56134000  1.0
  H  H9  1  0.23700000  0.44487000  0.43865000  1.0
  H  H10  1  0.03309000  0.69261000  0.53844000  1.0
  H  H11  1  0.96692000  0.30739000  0.46156000  1.0
  H  H12  1  0.82092000  0.94550000  0.64317000  1.0
  H  H13  1  0.17908000  0.05450000  0.35682000  1.0
  H  H14  1  0.54900000  0.80872000  0.66346000  1.0
  H  H15  1  0.45100000  0.19128000  0.33653000  1.0
  H  H16  1  0.54714000  0.63139000  0.83823000  1.0
  H  H17  1  0.45284000  0.36862000  0.16178000  1.0
  C  C18  1  0.19945000  0.84127000  0.96110000  1.0
  C  C19  1  0.80055000  0.15873000  0.03891000  1.0
  C  C20  1  0.84111000  0.67339000  0.99264000  1.0
  C  C21  1  0.15889000  0.32660000  0.00737000  1.0
  C  C22  1  0.10261000  0.87032000  0.84068000  1.0
  C  C23  1  0.89737000  0.12969000  0.15931000  1.0
  C  C24  1  0.82990000  0.68303000  0.54726000  1.0
  C  C25  1  0.17011000  0.31698000  0.45274000  1.0
  C  C26  1  0.75305000  0.81967000  0.66158000  1.0
  C  C27  1  0.24694000  0.18033000  0.33842000  1.0
  C  C28  1  0.86315000  0.79574000  0.79338000  1.0
  C  C29  1  0.13685000  0.20427000  0.20662000  1.0
  C  C30  1  0.73292000  0.69417000  0.87176000  1.0
  C  C31  1  0.26707000  0.30584000  0.12824000  1.0
  S  S32  1  0.70530000  0.69800000  0.38542000  1.0
  S  S33  1  0.29471000  0.30199000  0.61458000  1.0
  N  N34  1  0.07223000  0.74513000  0.03707000  1.0
  N  N35  1  0.92775000  0.25486000  0.96293000  1.0
  O  O36  1  0.42790000  0.68911000  0.40252000  1.0
  O  O37  1  0.57211000  0.31089000  0.59748000  1.0
  O  O38  1  0.80641000  0.86093000  0.35523000  1.0
  O  O39  1  0.19361000  0.13908000  0.64477000  1.0
  O  O40  1  0.77448000  0.54946000  0.28986000  1.0
  O  O41  1  0.22553000  0.45055000  0.71013000  1.0
