# generated using pymatgen
data_CuH10C12(N5O2)2
_symmetry_space_group_name_H-M   'P 1'
_cell_length_a   6.91246000
_cell_length_b   12.82850169
_cell_length_c   21.89316600
_cell_angle_alpha   84.94123697
_cell_angle_beta   80.93054804
_cell_angle_gamma   74.39616714
_symmetry_Int_Tables_number   1
_chemical_formula_structural   CuH10C12(N5O2)2
_chemical_formula_sum   'Cu4 H40 C48 N40 O16'
_cell_volume   1844.34102798
_cell_formula_units_Z   4
loop_
 _symmetry_equiv_pos_site_id
 _symmetry_equiv_pos_as_xyz
  1  'x, y, z'
loop_
 _atom_site_type_symbol
 _atom_site_label
 _atom_site_symmetry_multiplicity
 _atom_site_fract_x
 _atom_site_fract_y
 _atom_site_fract_z
 _atom_site_occupancy
  Cu  Cu0  1  0.85571000  0.27727000  0.34254000  1.0
  Cu  Cu1  1  0.47555000  0.22265000  0.15746000  1.0
  Cu  Cu2  1  0.14425000  0.72273000  0.65746000  1.0
  Cu  Cu3  1  0.52448000  0.77735000  0.84253000  1.0
  H  H4  1  0.02004000  0.02214000  0.34531000  1.0
  H  H5  1  0.38750000  0.47789000  0.15474000  1.0
  H  H6  1  0.97994000  0.97784000  0.65468000  1.0
  H  H7  1  0.61252000  0.52211000  0.84526000  1.0
  H  H8  1  0.38406000  0.26925000  0.56553000  1.0
  H  H9  1  0.21920000  0.23055000  0.93449000  1.0
  H  H10  1  0.61593000  0.73072000  0.43447000  1.0
  H  H11  1  0.78081000  0.76946000  0.06551000  1.0
  H  H12  1  0.47647000  0.08232000  0.61559000  1.0
  H  H13  1  0.17473000  0.41750000  0.88441000  1.0
  H  H14  1  0.52351000  0.91766000  0.38441000  1.0
  H  H15  1  0.82529000  0.58251000  0.11559000  1.0
  H  H16  1  0.84009000  0.85222000  0.53192000  1.0
  H  H17  1  0.22451000  0.64775000  0.96817000  1.0
  H  H18  1  0.15991000  0.14775000  0.46808000  1.0
  H  H19  1  0.77551000  0.35226000  0.03183000  1.0
  H  H20  1  0.67688000  0.89486000  0.60176000  1.0
  H  H21  1  0.17411000  0.60506000  0.89827000  1.0
  H  H22  1  0.32311000  0.10511000  0.39824000  1.0
  H  H23  1  0.82592000  0.39496000  0.10173000  1.0
  H  H24  1  0.67445000  0.51933000  0.35891000  1.0
  H  H25  1  0.55261000  0.98046000  0.14114000  1.0
  H  H26  1  0.32552000  0.48065000  0.64110000  1.0
  H  H27  1  0.44738000  0.01956000  0.85886000  1.0
  H  H28  1  0.04383000  0.21923000  0.58484000  1.0
  H  H29  1  0.84680000  0.28096000  0.91525000  1.0
  H  H30  1  0.95617000  0.78076000  0.41517000  1.0
  H  H31  1  0.15322000  0.71905000  0.08475000  1.0
  H  H32  1  0.89005000  0.39325000  0.63783000  1.0
  H  H33  1  0.92035000  0.10687000  0.86223000  1.0
  H  H34  1  0.10997000  0.60674000  0.36217000  1.0
  H  H35  1  0.07964000  0.89315000  0.13778000  1.0
  H  H36  1  0.60712000  0.63908000  0.54941000  1.0
  H  H37  1  0.79541000  0.86071000  0.95062000  1.0
  H  H38  1  0.39287000  0.36091000  0.45059000  1.0
  H  H39  1  0.20458000  0.13930000  0.04938000  1.0
  H  H40  1  0.70596000  0.60098000  0.61908000  1.0
  H  H41  1  0.92599000  0.89899000  0.88101000  1.0
  H  H42  1  0.29404000  0.39902000  0.38092000  1.0
  H  H43  1  0.07400000  0.10102000  0.11899000  1.0
  C  C44  1  0.90473000  0.24840000  0.21804000  1.0
  C  C45  1  0.37220000  0.25138000  0.28198000  1.0
  C  C46  1  0.09526000  0.75161000  0.78197000  1.0
  C  C47  1  0.62783000  0.74863000  0.71801000  1.0
  C  C48  1  0.84230000  0.37248000  0.22581000  1.0
  C  C49  1  0.44145000  0.12734000  0.27417000  1.0
  C  C50  1  0.15772000  0.62753000  0.77419000  1.0
  C  C51  1  0.55856000  0.87266000  0.72582000  1.0
  C  C52  1  0.91600000  0.04686000  0.38713000  1.0
  C  C53  1  0.34987000  0.45316000  0.11293000  1.0
  C  C54  1  0.08398000  0.95312000  0.61286000  1.0
  C  C55  1  0.65014000  0.54685000  0.88707000  1.0
  C  C56  1  0.69821000  0.15048000  0.45240000  1.0
  C  C57  1  0.30104000  0.34948000  0.04766000  1.0
  C  C58  1  0.30178000  0.84950000  0.54760000  1.0
  C  C59  1  0.69896000  0.65053000  0.95234000  1.0
  C  C60  1  0.49073000  0.20275000  0.54054000  1.0
  C  C61  1  0.23420000  0.29712000  0.95950000  1.0
  C  C62  1  0.50925000  0.79722000  0.45946000  1.0
  C  C63  1  0.76581000  0.70289000  0.04050000  1.0
  C  C64  1  0.54053000  0.09978000  0.56842000  1.0
  C  C65  1  0.20902000  0.40008000  0.93160000  1.0
  C  C66  1  0.45943000  0.90019000  0.43158000  1.0
  C  C67  1  0.79100000  0.59992000  0.06840000  1.0
  C  C68  1  0.67579000  0.01378000  0.53522000  1.0
  C  C69  1  0.22494000  0.48614000  0.96480000  1.0
  C  C70  1  0.32420000  0.98620000  0.46477000  1.0
  C  C71  1  0.77508000  0.51387000  0.03520000  1.0
  C  C72  1  0.72417000  0.48386000  0.40245000  1.0
  C  C73  1  0.61020000  0.01601000  0.09759000  1.0
  C  C74  1  0.27580000  0.51612000  0.59756000  1.0
  C  C75  1  0.38980000  0.98401000  0.90240000  1.0
  C  C76  1  0.86621000  0.36409000  0.46835000  1.0
  C  C77  1  0.69829000  0.13585000  0.03172000  1.0
  C  C78  1  0.13377000  0.63589000  0.53166000  1.0
  C  C79  1  0.30171000  0.86417000  0.96828000  1.0
  C  C80  1  0.96697000  0.29146000  0.55935000  1.0
  C  C81  1  0.81703000  0.20861000  0.94072000  1.0
  C  C82  1  0.03302000  0.70853000  0.44066000  1.0
  C  C83  1  0.18298000  0.79140000  0.05928000  1.0
  C  C84  1  0.87959000  0.38775000  0.58921000  1.0
  C  C85  1  0.85592000  0.11228000  0.91086000  1.0
  C  C86  1  0.12040000  0.61223000  0.41080000  1.0
  C  C87  1  0.14407000  0.88773000  0.08914000  1.0
  C  C88  1  0.77886000  0.48036000  0.55607000  1.0
  C  C89  1  0.81502000  0.01955000  0.94400000  1.0
  C  C90  1  0.22113000  0.51963000  0.44394000  1.0
  C  C91  1  0.18497000  0.98047000  0.05599000  1.0
  N  N92  1  0.88739000  0.97815000  0.43452000  1.0
  N  N93  1  0.29988000  0.52186000  0.06554000  1.0
  N  N94  1  0.11261000  0.02183000  0.56547000  1.0
  N  N95  1  0.70013000  0.47815000  0.93446000  1.0
  N  N96  1  0.80780000  0.15161000  0.39531000  1.0
  N  N97  1  0.35468000  0.34837000  0.10475000  1.0
  N  N98  1  0.19218000  0.84837000  0.60469000  1.0
  N  N99  1  0.64534000  0.65164000  0.89525000  1.0
  N  N100  1  0.56468000  0.23092000  0.48247000  1.0
  N  N101  1  0.27794000  0.26902000  0.01760000  1.0
  N  N102  1  0.43531000  0.76906000  0.51753000  1.0
  N  N103  1  0.72209000  0.73098000  0.98240000  1.0
  N  N104  1  0.72959000  0.91136000  0.55597000  1.0
  N  N105  1  0.19711000  0.58858000  0.94409000  1.0
  N  N106  1  0.27042000  0.08861000  0.44402000  1.0
  N  N107  1  0.80293000  0.41142000  0.05591000  1.0
  N  N108  1  0.75082000  0.04441000  0.47628000  1.0
  N  N109  1  0.27145000  0.45554000  0.02378000  1.0
  N  N110  1  0.24917000  0.95557000  0.52372000  1.0
  N  N111  1  0.72856000  0.54447000  0.97622000  1.0
  N  N112  1  0.68576000  0.53885000  0.45337000  1.0
  N  N113  1  0.67796000  0.96097000  0.04671000  1.0
  N  N114  1  0.31422000  0.46113000  0.54664000  1.0
  N  N115  1  0.32202000  0.03905000  0.95329000  1.0
  N  N116  1  0.83160000  0.37838000  0.40851000  1.0
  N  N117  1  0.61802000  0.12155000  0.09152000  1.0
  N  N118  1  0.16836000  0.62161000  0.59150000  1.0
  N  N119  1  0.38199000  0.87847000  0.90848000  1.0
  N  N120  1  0.96596000  0.27724000  0.49910000  1.0
  N  N121  1  0.74175000  0.22279000  0.00098000  1.0
  N  N122  1  0.03403000  0.72275000  0.50090000  1.0
  N  N123  1  0.25827000  0.77722000  0.99902000  1.0
  N  N124  1  0.69138000  0.57845000  0.57635000  1.0
  N  N125  1  0.84600000  0.92144000  0.92372000  1.0
  N  N126  1  0.30862000  0.42153000  0.42366000  1.0
  N  N127  1  0.15399000  0.07857000  0.07628000  1.0
  N  N128  1  0.77537000  0.46266000  0.49513000  1.0
  N  N129  1  0.73304000  0.03721000  0.00495000  1.0
  N  N130  1  0.22464000  0.53732000  0.50487000  1.0
  N  N131  1  0.26694000  0.96281000  0.99505000  1.0
  O  O132  1  0.92989000  0.18979000  0.26876000  1.0
  O  O133  1  0.38865000  0.31005000  0.23124000  1.0
  O  O134  1  0.07009000  0.81021000  0.73124000  1.0
  O  O135  1  0.61141000  0.68994000  0.76874000  1.0
  O  O136  1  0.92650000  0.21282000  0.16561000  1.0
  O  O137  1  0.30664000  0.28685000  0.33444000  1.0
  O  O138  1  0.07352000  0.78720000  0.83440000  1.0
  O  O139  1  0.69339000  0.71316000  0.66555000  1.0
  O  O140  1  0.81722000  0.43671000  0.18012000  1.0
  O  O141  1  0.43528000  0.06314000  0.31989000  1.0
  O  O142  1  0.18286000  0.56329000  0.81988000  1.0
  O  O143  1  0.56471000  0.93687000  0.68011000  1.0
  O  O144  1  0.82068000  0.40071000  0.28223000  1.0
  O  O145  1  0.50377000  0.09911000  0.21774000  1.0
  O  O146  1  0.17932000  0.59929000  0.71778000  1.0
  O  O147  1  0.49627000  0.90088000  0.78225000  1.0
