# generated using pymatgen
data_Zn4H6C24S6Cl2O19
_symmetry_space_group_name_H-M   'P 1'
_cell_length_a   19.58820000
_cell_length_b   19.67690000
_cell_length_c   33.25910000
_cell_angle_alpha   79.19420000
_cell_angle_beta   79.46470000
_cell_angle_gamma   64.08090000
_symmetry_Int_Tables_number   1
_chemical_formula_structural   Zn4H6C24S6Cl2O19
_chemical_formula_sum   'Zn16 H24 C96 S24 Cl8 O76'
_cell_volume   11251.22685259
_cell_formula_units_Z   4
loop_
 _symmetry_equiv_pos_site_id
 _symmetry_equiv_pos_as_xyz
  1  'x, y, z'
loop_
 _atom_site_type_symbol
 _atom_site_label
 _atom_site_symmetry_multiplicity
 _atom_site_fract_x
 _atom_site_fract_y
 _atom_site_fract_z
 _atom_site_occupancy
  Zn  Zn0  1  0.05701000  0.39746000  0.47971000  1.0
  Zn  Zn1  1  0.98705000  0.48038000  0.56060000  1.0
  Zn  Zn2  1  0.05597000  0.56269000  0.48133000  1.0
  Zn  Zn3  1  0.90193000  0.55614000  0.47913000  1.0
  Zn  Zn4  1  0.69203000  0.34972000  0.27227000  1.0
  Zn  Zn5  1  0.68559000  0.19241000  0.26722000  1.0
  Zn  Zn6  1  0.77183000  0.26475000  0.19058000  1.0
  Zn  Zn7  1  0.84816000  0.19404000  0.27072000  1.0
  Zn  Zn8  1  0.26970000  0.76527000  0.68883000  1.0
  Zn  Zn9  1  0.35195000  0.69709000  0.76991000  1.0
  Zn  Zn10  1  0.19033000  0.84676000  0.77176000  1.0
  Zn  Zn11  1  0.19055000  0.69071000  0.76829000  1.0
  Zn  Zn12  1  0.55798000  0.06388000  0.98247000  1.0
  Zn  Zn13  1  0.40050000  0.05834000  0.97646000  1.0
  Zn  Zn14  1  0.55591000  0.90149000  0.98031000  1.0
  Zn  Zn15  1  0.48347000  0.97959000  0.05927000  1.0
  H  H16  1  0.74936000  0.44931000  0.34925000  1.0
  H  H17  1  0.00092000  0.29979000  0.40093000  1.0
  H  H18  1  0.19992000  0.70202000  0.60084000  1.0
  H  H19  1  0.04998000  0.54923000  0.64889000  1.0
  H  H20  1  0.46097000  0.24066000  0.34204000  1.0
  H  H21  1  0.48177000  0.69919000  0.59944000  1.0
  H  H22  1  0.20120000  0.97695000  0.60215000  1.0
  H  H23  1  0.94433000  0.97640000  0.35074000  1.0
  H  H24  1  0.65049000  0.14782000  0.04924000  1.0
  H  H25  1  0.60110000  0.09981000  0.20065000  1.0
  H  H26  1  0.54864000  0.76777000  0.14978000  1.0
  H  H27  1  0.16352000  0.13847000  0.03917000  1.0
  H  H28  1  0.29970000  0.00020000  0.90100000  1.0
  H  H29  1  0.44898000  0.75037000  0.84944000  1.0
  H  H30  1  0.29941000  0.28323000  0.89941000  1.0
  H  H31  1  0.78692000  0.01019000  0.91092000  1.0
  H  H32  1  0.84343000  0.57202000  0.39986000  1.0
  H  H33  1  0.96495000  0.23569000  0.29207000  1.0
  H  H34  1  0.06984000  0.68684000  0.51363000  1.0
  H  H35  1  0.06372000  0.67809000  0.73668000  1.0
  H  H36  1  0.79503000  0.17714000  0.12194000  1.0
  H  H37  1  0.57122000  0.95633000  0.12825000  1.0
  H  H38  1  0.17693000  0.90638000  0.84990000  1.0
  H  H39  1  0.51451000  0.78519000  0.95839000  1.0
  C  C40  1  0.06212000  0.31376000  0.56288000  1.0
  C  C41  1  0.06550000  0.57387000  0.56817000  1.0
  C  C42  1  0.18190000  0.44022000  0.43943000  1.0
  C  C43  1  0.93535000  0.68699000  0.43818000  1.0
  C  C44  1  0.93387000  0.43283000  0.42898000  1.0
  C  C45  1  0.81973000  0.55996000  0.56150000  1.0
  C  C46  1  0.56292000  0.31253000  0.31173000  1.0
  C  C47  1  0.68652000  0.17600000  0.18087000  1.0
  C  C48  1  0.69079000  0.43090000  0.18847000  1.0
  C  C49  1  0.93783000  0.18544000  0.18894000  1.0
  C  C50  1  0.82123000  0.32128000  0.31633000  1.0
  C  C51  1  0.80900000  0.06884000  0.31122000  1.0
  C  C52  1  0.43633000  0.68906000  0.68670000  1.0
  C  C53  1  0.31565000  0.81819000  0.82080000  1.0
  C  C54  1  0.18888000  0.93139000  0.68910000  1.0
  C  C55  1  0.06386000  0.80898000  0.81301000  1.0
  C  C56  1  0.17628000  0.68539000  0.68159000  1.0
  C  C57  1  0.31447000  0.56868000  0.81026000  1.0
  C  C58  1  0.43592000  0.18736000  0.93761000  1.0
  C  C59  1  0.42890000  0.92848000  0.93364000  1.0
  C  C60  1  0.68142000  0.94159000  0.93918000  1.0
  C  C61  1  0.56233000  0.81384000  0.06270000  1.0
  C  C62  1  0.57334000  0.06359000  0.06896000  1.0
  C  C63  1  0.31725000  0.06159000  0.05977000  1.0
  C  C64  1  0.90037000  0.40548000  0.40157000  1.0
  C  C65  1  0.85163000  0.34529000  0.34688000  1.0
  C  C66  1  0.82800000  0.44679000  0.38722000  1.0
  C  C67  1  0.92261000  0.30259000  0.36262000  1.0
  C  C68  1  0.80515000  0.41661000  0.36023000  1.0
  C  C69  1  0.94584000  0.33315000  0.38923000  1.0
  C  C70  1  0.09803000  0.60169000  0.59579000  1.0
  C  C71  1  0.14887000  0.65255000  0.65396000  1.0
  C  C72  1  0.14191000  0.64434000  0.58254000  1.0
  C  C73  1  0.10712000  0.60778000  0.66720000  1.0
  C  C74  1  0.16619000  0.66909000  0.61149000  1.0
  C  C75  1  0.08231000  0.58356000  0.63824000  1.0
  C  C76  1  0.30247000  0.45631000  0.40141000  1.0
  C  C77  1  0.44377000  0.29766000  0.34969000  1.0
  C  C78  1  0.25643000  0.41683000  0.41456000  1.0
  C  C79  1  0.48837000  0.33799000  0.33681000  1.0
  C  C80  1  0.37562000  0.34085000  0.37317000  1.0
  C  C81  1  0.37040000  0.41283000  0.37768000  1.0
  C  C82  1  0.72892000  0.57608000  0.62942000  1.0
  C  C83  1  0.52660000  0.67133000  0.61968000  1.0
  C  C84  1  0.74549000  0.58369000  0.58663000  1.0
  C  C85  1  0.51146000  0.66307000  0.66221000  1.0
  C  C86  1  0.60607000  0.63915000  0.60756000  1.0
  C  C87  1  0.64926000  0.60759000  0.64131000  1.0
  C  C88  1  0.07779000  0.22318000  0.63113000  1.0
  C  C89  1  0.17344000  0.02165000  0.62217000  1.0
  C  C90  1  0.08645000  0.23979000  0.58835000  1.0
  C  C91  1  0.16437000  0.00656000  0.66472000  1.0
  C  C92  1  0.14220000  0.10079000  0.60980000  1.0
  C  C93  1  0.10984000  0.14376000  0.64334000  1.0
  C  C94  1  0.84121000  0.80311000  0.39568000  1.0
  C  C95  1  0.90120000  0.95441000  0.35377000  1.0
  C  C96  1  0.90928000  0.76161000  0.41339000  1.0
  C  C97  1  0.83348000  0.99417000  0.33618000  1.0
  C  C98  1  0.90446000  0.88424000  0.37531000  1.0
  C  C99  1  0.83874000  0.87290000  0.37382000  1.0
  C  C100  1  0.65647000  0.15099000  0.15058000  1.0
  C  C101  1  0.59818000  0.09361000  0.09931000  1.0
  C  C102  1  0.66894000  0.16533000  0.10728000  1.0
  C  C103  1  0.58339000  0.08155000  0.14259000  1.0
  C  C104  1  0.64025000  0.13646000  0.08258000  1.0
  C  C105  1  0.61275000  0.10975000  0.16731000  1.0
  C  C106  1  0.67515000  0.52179000  0.12022000  1.0
  C  C107  1  0.57756000  0.72330000  0.12965000  1.0
  C  C108  1  0.66628000  0.50490000  0.16301000  1.0
  C  C109  1  0.58757000  0.73874000  0.08714000  1.0
  C  C110  1  0.60985000  0.64406000  0.14186000  1.0
  C  C111  1  0.64313000  0.60132000  0.10826000  1.0
  C  C112  1  0.08546000  0.12333000  0.17753000  1.0
  C  C113  1  0.17161000  0.12333000  0.07165000  1.0
  C  C114  1  0.01274000  0.16073000  0.16452000  1.0
  C  C115  1  0.24318000  0.08642000  0.08532000  1.0
  C  C116  1  0.11379000  0.13729000  0.10529000  1.0
  C  C117  1  0.14309000  0.11022000  0.14367000  1.0
  C  C118  1  0.34299000  0.85080000  0.84861000  1.0
  C  C119  1  0.40414000  0.89828000  0.90337000  1.0
  C  C120  1  0.30159000  0.92250000  0.86305000  1.0
  C  C121  1  0.44664000  0.82764000  0.88785000  1.0
  C  C122  1  0.33231000  0.94479000  0.89005000  1.0
  C  C123  1  0.41566000  0.80505000  0.86112000  1.0
  C  C124  1  0.40791000  0.45149000  0.85260000  1.0
  C  C125  1  0.34408000  0.30334000  0.89562000  1.0
  C  C126  1  0.33992000  0.49394000  0.83493000  1.0
  C  C127  1  0.41215000  0.26207000  0.91270000  1.0
  C  C128  1  0.34246000  0.37251000  0.87343000  1.0
  C  C129  1  0.40935000  0.38208000  0.87446000  1.0
  C  C130  1  0.94170000  0.79518000  0.85022000  1.0
  C  C131  1  0.80261000  0.95400000  0.90254000  1.0
  C  C132  1  0.98926000  0.83311000  0.83778000  1.0
  C  C133  1  0.75611000  0.91547000  0.91427000  1.0
  C  C134  1  0.87036000  0.91032000  0.87896000  1.0
  C  C135  1  0.87368000  0.83947000  0.87360000  1.0
  S  S136  1  0.29649000  0.32711000  0.39783000  1.0
  S  S137  1  0.44849000  0.42794000  0.35302000  1.0
  S  S138  1  0.66368000  0.62878000  0.56126000  1.0
  S  S139  1  0.59284000  0.61653000  0.68778000  1.0
  S  S140  1  0.13368000  0.15832000  0.56338000  1.0
  S  S141  1  0.11841000  0.08755000  0.68999000  1.0
  S  S142  1  0.96961000  0.80831000  0.40323000  1.0
  S  S143  1  0.77340000  0.94745000  0.34567000  1.0
  S  S144  1  0.61887000  0.58620000  0.18818000  1.0
  S  S145  1  0.63563000  0.65792000  0.06175000  1.0
  S  S146  1  0.01537000  0.17959000  0.11102000  1.0
  S  S147  1  0.24120000  0.06865000  0.13870000  1.0
  S  S148  1  0.27848000  0.44854000  0.84497000  1.0
  S  S149  1  0.47443000  0.30639000  0.90216000  1.0
  S  S150  1  0.95054000  0.92257000  0.85478000  1.0
  S  S151  1  0.79364000  0.82664000  0.89686000  1.0
  S  S152  1  0.75690000  0.53614000  0.40352000  1.0
  S  S153  1  0.98623000  0.20609000  0.35340000  1.0
  S  S154  1  0.17580000  0.66558000  0.52957000  1.0
  S  S155  1  0.08700000  0.57260000  0.72015000  1.0
  S  S156  1  0.71505000  0.22517000  0.07981000  1.0
  S  S157  1  0.52263000  0.03627000  0.16985000  1.0
  S  S158  1  0.21162000  0.99334000  0.84671000  1.0
  S  S159  1  0.54359000  0.76387000  0.89724000  1.0
  Cl  Cl160  1  0.28323000  0.54504000  0.41135000  1.0
  Cl  Cl161  1  0.79302000  0.53447000  0.66474000  1.0
  Cl  Cl162  1  0.03537000  0.28690000  0.66619000  1.0
  Cl  Cl163  1  0.76857000  0.77637000  0.39822000  1.0
  Cl  Cl164  1  0.71814000  0.45828000  0.08520000  1.0
  Cl  Cl165  1  0.10646000  0.09614000  0.22714000  1.0
  Cl  Cl166  1  0.48234000  0.47599000  0.84937000  1.0
  Cl  Cl167  1  0.95891000  0.70762000  0.83917000  1.0
  O  O168  1  0.00129000  0.49757000  0.50008000  1.0
  O  O169  1  0.08120000  0.31231000  0.52390000  1.0
  O  O170  1  0.04829000  0.51875000  0.58373000  1.0
  O  O171  1  0.15518000  0.50406000  0.45359000  1.0
  O  O172  1  0.02424000  0.37288000  0.58134000  1.0
  O  O173  1  0.15017000  0.39371000  0.44471000  1.0
  O  O174  1  0.05504000  0.60791000  0.53138000  1.0
  O  O175  1  0.00352000  0.65982000  0.44820000  1.0
  O  O176  1  0.90738000  0.50474000  0.43074000  1.0
  O  O177  1  0.88922000  0.65506000  0.44791000  1.0
  O  O178  1  0.98817000  0.38249000  0.44802000  1.0
  O  O179  1  0.87927000  0.53341000  0.58016000  1.0
  O  O180  1  0.81778000  0.56886000  0.52236000  1.0
  O  O181  1  0.74792000  0.25089000  0.25055000  1.0
  O  O182  1  0.59310000  0.36035000  0.30225000  1.0
  O  O183  1  0.65250000  0.17881000  0.21718000  1.0
  O  O184  1  0.72126000  0.37146000  0.16991000  1.0
  O  O185  1  0.59105000  0.24519000  0.30156000  1.0
  O  O186  1  0.67903000  0.43296000  0.22761000  1.0
  O  O187  1  0.74525000  0.19094000  0.16893000  1.0
  O  O188  1  0.87993000  0.22300000  0.16856000  1.0
  O  O189  1  0.86856000  0.27077000  0.29331000  1.0
  O  O190  1  0.93550000  0.16812000  0.22797000  1.0
  O  O191  1  0.74984000  0.35440000  0.31444000  1.0
  O  O192  1  0.74549000  0.09309000  0.29620000  1.0
  O  O193  1  0.85320000  0.10273000  0.30670000  1.0
  O  O194  1  0.25140000  0.74996000  0.74926000  1.0
  O  O195  1  0.37777000  0.72570000  0.66712000  1.0
  O  O196  1  0.36660000  0.76587000  0.80104000  1.0
  O  O197  1  0.17685000  0.93092000  0.72836000  1.0
  O  O198  1  0.43641000  0.67252000  0.72585000  1.0
  O  O199  1  0.21956000  0.87356000  0.66914000  1.0
  O  O200  1  0.24346000  0.84306000  0.81942000  1.0
  O  O201  1  0.09233000  0.85845000  0.80383000  1.0
  O  O202  1  0.14332000  0.69358000  0.71861000  1.0
  O  O203  1  0.09469000  0.74182000  0.80256000  1.0
  O  O204  1  0.22987000  0.70508000  0.66584000  1.0
  O  O205  1  0.35668000  0.60460000  0.80551000  1.0
  O  O206  1  0.25052000  0.59146000  0.79574000  1.0
  O  O207  1  0.49889000  0.00208000  0.99928000  1.0
  O  O208  1  0.50335000  0.15870000  0.94856000  1.0
  O  O209  1  0.39596000  0.99968000  0.93507000  1.0
  O  O210  1  0.64744000  0.89713000  0.94478000  1.0
  O  O211  1  0.38790000  0.15749000  0.94616000  1.0
  O  O212  1  0.65718000  0.00547000  0.95310000  1.0
  O  O213  1  0.47967000  0.88127000  0.95686000  1.0
  O  O214  1  0.58091000  0.81478000  0.02364000  1.0
  O  O215  1  0.55802000  0.00525000  0.08103000  1.0
  O  O216  1  0.52405000  0.87196000  0.08211000  1.0
  O  O217  1  0.57125000  0.09704000  0.03246000  1.0
  O  O218  1  0.31625000  0.07254000  0.02071000  1.0
  O  O219  1  0.37636000  0.03070000  0.07933000  1.0
  O  O220  1  0.79661000  0.59237000  0.38516000  1.0
  O  O221  1  0.69235000  0.56026000  0.38132000  1.0
  O  O222  1  0.74838000  0.52737000  0.44785000  1.0
  O  O223  1  0.01314000  0.21641000  0.30545000  1.0
  O  O224  1  0.05260000  0.18325000  0.37387000  1.0
  O  O225  1  0.94150000  0.16218000  0.36166000  1.0
  O  O226  1  0.09834000  0.71980000  0.51051000  1.0
  O  O227  1  0.21596000  0.71185000  0.52861000  1.0
  O  O228  1  0.21205000  0.59506000  0.51180000  1.0
  O  O229  1  0.03151000  0.64901000  0.73933000  1.0
  O  O230  1  0.04163000  0.53157000  0.72088000  1.0
  O  O231  1  0.15793000  0.53729000  0.73807000  1.0
  O  O232  1  0.80014000  0.17851000  0.09117000  1.0
  O  O233  1  0.71871000  0.22364000  0.03654000  1.0
  O  O234  1  0.67928000  0.29600000  0.09727000  1.0
  O  O235  1  0.56933000  0.95129000  0.15908000  1.0
  O  O236  1  0.52359000  0.03295000  0.21316000  1.0
  O  O237  1  0.45186000  0.07195000  0.15175000  1.0
  O  O238  1  0.15575000  0.95297000  0.86458000  1.0
  O  O239  1  0.18717000  0.05703000  0.86920000  1.0
  O  O240  1  0.22028000  0.00282000  0.80238000  1.0
  O  O241  1  0.53365000  0.73715000  0.94530000  1.0
  O  O242  1  0.56578000  0.69783000  0.87709000  1.0
  O  O243  1  0.58777000  0.80830000  0.88870000  1.0
