# generated using pymatgen
data_U3P6H34C18O29
_symmetry_space_group_name_H-M   'P 1'
_cell_length_a   9.87495000
_cell_length_b   10.23030000
_cell_length_c   25.84660000
_cell_angle_alpha   90.01800000
_cell_angle_beta   90.02340000
_cell_angle_gamma   75.30100000
_symmetry_Int_Tables_number   1
_chemical_formula_structural   U3P6H34C18O29
_chemical_formula_sum   'U6 P12 H68 C36 O58'
_cell_volume   2525.66268460
_cell_formula_units_Z   2
loop_
 _symmetry_equiv_pos_site_id
 _symmetry_equiv_pos_as_xyz
  1  'x, y, z'
loop_
 _atom_site_type_symbol
 _atom_site_label
 _atom_site_symmetry_multiplicity
 _atom_site_fract_x
 _atom_site_fract_y
 _atom_site_fract_z
 _atom_site_occupancy
  U  U0  1  0.46915000  0.61787000  0.75125000  1.0
  U  U1  1  0.53086000  0.38201000  0.25119000  1.0
  U  U2  1  0.17568000  0.48731000  0.58611000  1.0
  U  U3  1  0.82439000  0.51278000  0.08609000  1.0
  U  U4  1  0.82243000  0.51628000  0.41459000  1.0
  U  U5  1  0.17757000  0.48365000  0.91456000  1.0
  P  P6  1  0.62433000  0.26638000  0.38583000  1.0
  P  P7  1  0.37554000  0.73370000  0.88588000  1.0
  P  P8  1  0.37471000  0.73882000  0.61614000  1.0
  P  P9  1  0.62542000  0.26128000  0.11609000  1.0
  P  P10  1  0.50379000  0.32799000  0.65545000  1.0
  P  P11  1  0.49655000  0.67213000  0.15552000  1.0
  P  P12  1  0.49465000  0.67464000  0.34470000  1.0
  P  P13  1  0.50525000  0.32531000  0.84465000  1.0
  P  P14  1  0.98212000  0.81793000  0.52721000  1.0
  P  P15  1  0.01788000  0.18219000  0.02717000  1.0
  P  P16  1  0.01823000  0.18439000  0.47332000  1.0
  P  P17  1  0.98178000  0.81558000  0.97331000  1.0
  H  H18  1  0.43124000  0.93636000  0.73192000  1.0
  H  H19  1  0.56807000  0.06175000  0.23310000  1.0
  H  H20  1  0.28755000  0.90302000  0.73927000  1.0
  H  H21  1  0.71189000  0.09575000  0.23941000  1.0
  H  H22  1  0.93496000  0.40700000  0.52891000  1.0
  H  H23  1  0.06508000  0.59297000  0.02889000  1.0
  H  H24  1  0.06614000  0.59454000  0.47112000  1.0
  H  H25  1  0.93389000  0.40549000  0.97109000  1.0
  H  H26  1  0.86877000  0.54405000  0.55463000  1.0
  H  H27  1  0.13129000  0.45604000  0.05471000  1.0
  H  H28  1  0.13035000  0.45769000  0.44478000  1.0
  H  H29  1  0.86971000  0.54234000  0.94475000  1.0
  H  H30  1  0.83137000  0.12889000  0.40022000  1.0
  H  H31  1  0.16850000  0.87117000  0.90029000  1.0
  H  H32  1  0.16787000  0.87704000  0.60090000  1.0
  H  H33  1  0.83224000  0.12309000  0.10084000  1.0
  H  H34  1  0.21751000  0.20765000  0.62421000  1.0
  H  H35  1  0.78254000  0.79247000  0.12416000  1.0
  H  H36  1  0.78679000  0.79660000  0.37379000  1.0
  H  H37  1  0.21286000  0.20324000  0.87365000  1.0
  H  H38  1  0.08937000  0.21876000  0.58555000  1.0
  H  H39  1  0.91070000  0.78133000  0.08554000  1.0
  H  H40  1  0.91115000  0.78380000  0.41429000  1.0
  H  H41  1  0.08878000  0.21617000  0.91424000  1.0
  H  H42  1  0.57691000  0.11047000  0.65344000  1.0
  H  H43  1  0.42380000  0.88971000  0.15359000  1.0
  H  H44  1  0.44175000  0.89435000  0.34483000  1.0
  H  H45  1  0.55688000  0.10554000  0.84450000  1.0
  H  H46  1  0.96535000  0.95581000  0.45778000  1.0
  H  H47  1  0.03464000  0.04422000  0.95777000  1.0
  H  H48  1  0.03433000  0.04709000  0.54282000  1.0
  H  H49  1  0.96566000  0.95298000  0.04278000  1.0
  H  H50  1  0.53200000  0.36563000  0.51386000  1.0
  H  H51  1  0.46805000  0.63447000  0.01395000  1.0
  H  H52  1  0.46688000  0.63451000  0.48698000  1.0
  H  H53  1  0.53321000  0.36547000  0.98692000  1.0
  H  H54  1  0.78212000  0.06041000  0.61340000  1.0
  H  H55  1  0.21809000  0.93984000  0.11348000  1.0
  H  H56  1  0.22011000  0.94015000  0.38687000  1.0
  H  H57  1  0.77971000  0.05970000  0.88680000  1.0
  H  H58  1  0.65283000  0.95117000  0.46394000  1.0
  H  H59  1  0.34708000  0.04886000  0.96403000  1.0
  H  H60  1  0.34642000  0.04910000  0.53682000  1.0
  H  H61  1  0.65365000  0.95093000  0.03676000  1.0
  H  H62  1  0.42238000  0.29011000  0.43749000  1.0
  H  H63  1  0.57752000  0.70982000  0.93760000  1.0
  H  H64  1  0.57585000  0.70978000  0.56365000  1.0
  H  H65  1  0.42429000  0.29031000  0.06356000  1.0
  H  H66  1  0.48307000  0.12260000  0.41334000  1.0
  H  H67  1  0.51698000  0.87733000  0.91347000  1.0
  H  H68  1  0.51836000  0.87859000  0.58665000  1.0
  H  H69  1  0.48173000  0.12152000  0.08656000  1.0
  H  H70  1  0.61954000  0.43219000  0.59359000  1.0
  H  H71  1  0.38051000  0.56800000  0.09370000  1.0
  H  H72  1  0.38143000  0.56841000  0.40665000  1.0
  H  H73  1  0.61876000  0.43146000  0.90659000  1.0
  H  H74  1  0.74052000  0.31524000  0.63272000  1.0
  H  H75  1  0.25970000  0.68511000  0.13283000  1.0
  H  H76  1  0.25885000  0.68546000  0.36805000  1.0
  H  H77  1  0.74112000  0.31424000  0.86800000  1.0
  H  H78  1  0.75757000  0.77536000  0.52669000  1.0
  H  H79  1  0.24242000  0.22475000  0.02676000  1.0
  H  H80  1  0.24347000  0.22505000  0.47375000  1.0
  H  H81  1  0.75655000  0.77490000  0.97366000  1.0
  H  H82  1  0.80694000  0.81731000  0.59012000  1.0
  H  H83  1  0.19299000  0.18290000  0.09016000  1.0
  H  H84  1  0.19389000  0.18285000  0.41040000  1.0
  H  H85  1  0.80611000  0.81706000  0.91034000  1.0
  C  C86  1  0.58633000  0.16342000  0.48306000  1.0
  C  C87  1  0.41365000  0.83664000  0.98314000  1.0
  C  C88  1  0.41254000  0.83683000  0.51781000  1.0
  C  C89  1  0.58754000  0.16317000  0.01775000  1.0
  C  C90  1  0.58651000  0.26048000  0.52112000  1.0
  C  C91  1  0.41352000  0.73962000  0.02121000  1.0
  C  C92  1  0.41245000  0.73972000  0.47973000  1.0
  C  C93  1  0.58760000  0.26023000  0.97967000  1.0
  C  C94  1  0.65382000  0.22487000  0.56851000  1.0
  C  C95  1  0.34630000  0.77530000  0.06860000  1.0
  C  C96  1  0.34585000  0.77561000  0.43219000  1.0
  C  C97  1  0.65414000  0.22429000  0.93215000  1.0
  C  C98  1  0.72313000  0.08910000  0.57754000  1.0
  C  C99  1  0.27698000  0.91107000  0.07762000  1.0
  C  C100  1  0.27686000  0.91138000  0.42312000  1.0
  C  C101  1  0.72310000  0.08851000  0.92308000  1.0
  C  C102  1  0.72313000  0.98992000  0.54012000  1.0
  C  C103  1  0.27691000  0.01020000  0.04020000  1.0
  C  C104  1  0.27644000  0.01045000  0.46060000  1.0
  C  C105  1  0.72357000  0.98950000  0.96055000  1.0
  C  C106  1  0.65415000  0.02816000  0.49306000  1.0
  C  C107  1  0.34585000  0.97190000  0.99314000  1.0
  C  C108  1  0.34494000  0.97207000  0.50775000  1.0
  C  C109  1  0.65512000  0.02792000  0.00768000  1.0
  C  C110  1  0.51574000  0.20595000  0.43217000  1.0
  C  C111  1  0.48420000  0.79404000  0.93227000  1.0
  C  C112  1  0.48353000  0.79523000  0.56876000  1.0
  C  C113  1  0.51658000  0.20483000  0.06868000  1.0
  C  C114  1  0.64375000  0.32978000  0.60996000  1.0
  C  C115  1  0.35641000  0.67044000  0.11006000  1.0
  C  C116  1  0.35603000  0.67115000  0.39055000  1.0
  C  C117  1  0.64398000  0.32868000  0.89050000  1.0
  C  C118  1  0.80298000  0.84542000  0.54894000  1.0
  C  C119  1  0.19700000  0.15472000  0.04898000  1.0
  C  C120  1  0.19748000  0.15522000  0.45162000  1.0
  C  C121  1  0.80253000  0.84472000  0.95157000  1.0
  O  O122  1  0.53783000  0.30499000  0.33738000  1.0
  O  O123  1  0.46189000  0.69522000  0.83740000  1.0
  O  O124  1  0.45965000  0.70564000  0.66527000  1.0
  O  O125  1  0.54051000  0.29454000  0.16521000  1.0
  O  O126  1  0.38222000  0.88480000  0.75329000  1.0
  O  O127  1  0.61733000  0.11505000  0.25355000  1.0
  O  O128  1  0.93544000  0.45793000  0.56188000  1.0
  O  O129  1  0.06459000  0.54219000  0.06188000  1.0
  O  O130  1  0.06416000  0.54441000  0.43812000  1.0
  O  O131  1  0.93586000  0.45559000  0.93809000  1.0
  O  O132  1  0.75433000  0.14457000  0.37333000  1.0
  O  O133  1  0.24551000  0.85553000  0.87341000  1.0
  O  O134  1  0.24497000  0.86276000  0.62783000  1.0
  O  O135  1  0.75519000  0.13738000  0.12777000  1.0
  O  O136  1  0.67054000  0.38235000  0.41296000  1.0
  O  O137  1  0.32938000  0.61765000  0.91293000  1.0
  O  O138  1  0.32746000  0.62198000  0.59047000  1.0
  O  O139  1  0.67261000  0.37815000  0.09044000  1.0
  O  O140  1  0.12754000  0.26554000  0.61356000  1.0
  O  O141  1  0.87254000  0.73460000  0.11355000  1.0
  O  O142  1  0.87306000  0.73632000  0.38653000  1.0
  O  O143  1  0.12678000  0.26363000  0.88649000  1.0
  O  O144  1  0.54364000  0.17818000  0.68043000  1.0
  O  O145  1  0.45687000  0.82193000  0.18057000  1.0
  O  O146  1  0.45432000  0.82285000  0.31889000  1.0
  O  O147  1  0.54540000  0.17725000  0.81871000  1.0
  O  O148  1  0.36586000  0.34385000  0.62595000  1.0
  O  O149  1  0.63433000  0.65631000  0.12598000  1.0
  O  O150  1  0.63269000  0.65874000  0.37416000  1.0
  O  O151  1  0.36726000  0.34120000  0.87411000  1.0
  O  O152  1  0.50294000  0.42795000  0.69782000  1.0
  O  O153  1  0.49756000  0.57214000  0.19787000  1.0
  O  O154  1  0.49447000  0.57563000  0.30201000  1.0
  O  O155  1  0.50550000  0.42441000  0.80203000  1.0
  O  O156  1  0.05646000  0.66773000  0.53121000  1.0
  O  O157  1  0.94353000  0.33239000  0.03115000  1.0
  O  O158  1  0.94488000  0.33475000  0.46918000  1.0
  O  O159  1  0.05517000  0.66522000  0.96917000  1.0
  O  O160  1  0.05208000  0.91126000  0.55737000  1.0
  O  O161  1  0.94790000  0.08889000  0.05729000  1.0
  O  O162  1  0.94737000  0.09130000  0.44350000  1.0
  O  O163  1  0.05261000  0.90868000  0.94352000  1.0
  O  O164  1  0.97505000  0.85278000  0.46745000  1.0
  O  O165  1  0.02502000  0.14724000  0.96742000  1.0
  O  O166  1  0.02498000  0.14989000  0.53318000  1.0
  O  O167  1  0.97502000  0.85016000  0.03317000  1.0
  O  O168  1  0.65208000  0.61581000  0.75078000  1.0
  O  O169  1  0.34787000  0.38432000  0.25062000  1.0
  O  O170  1  0.28257000  0.63937000  0.75096000  1.0
  O  O171  1  0.71748000  0.36018000  0.25105000  1.0
  O  O172  1  0.09077000  0.57098000  0.64285000  1.0
  O  O173  1  0.90938000  0.42916000  0.14283000  1.0
  O  O174  1  0.90487000  0.43148000  0.35767000  1.0
  O  O175  1  0.09504000  0.56840000  0.85765000  1.0
  O  O176  1  0.24175000  0.40684000  0.52482000  1.0
  O  O177  1  0.75821000  0.59323000  0.02481000  1.0
  O  O178  1  0.75845000  0.59723000  0.47605000  1.0
  O  O179  1  0.24165000  0.40271000  0.97602000  1.0
