# generated using pymatgen
data_CoH17C20N2O5
_symmetry_space_group_name_H-M   'P 1'
_cell_length_a   8.55980000
_cell_length_b   11.31609918
_cell_length_c   23.24780000
_cell_angle_alpha   101.80013040
_cell_angle_beta   90.01000000
_cell_angle_gamma   112.20352868
_symmetry_Int_Tables_number   1
_chemical_formula_structural   CoH17C20N2O5
_chemical_formula_sum   'Co4 H68 C80 N8 O20'
_cell_volume   2033.35580854
_cell_formula_units_Z   4
loop_
 _symmetry_equiv_pos_site_id
 _symmetry_equiv_pos_as_xyz
  1  'x, y, z'
loop_
 _atom_site_type_symbol
 _atom_site_label
 _atom_site_symmetry_multiplicity
 _atom_site_fract_x
 _atom_site_fract_y
 _atom_site_fract_z
 _atom_site_occupancy
  Co  Co0  1  0.45093000  0.08307000  0.01253000  1.0
  Co  Co1  1  0.36788000  0.91684000  0.48737000  1.0
  Co  Co2  1  0.54917000  0.91703000  0.98749000  1.0
  Co  Co3  1  0.63203000  0.08303000  0.51260000  1.0
  H  H4  1  0.78890000  0.32072000  0.17193000  1.0
  H  H5  1  0.46858000  0.67956000  0.32808000  1.0
  H  H6  1  0.21120000  0.67943000  0.82811000  1.0
  H  H7  1  0.53133000  0.32021000  0.67187000  1.0
  H  H8  1  0.01955000  0.41840000  0.25461000  1.0
  H  H9  1  0.60145000  0.58181000  0.24538000  1.0
  H  H10  1  0.98058000  0.58173000  0.74542000  1.0
  H  H11  1  0.39857000  0.41800000  0.75459000  1.0
  H  H12  1  0.29124000  0.19870000  0.15942000  1.0
  H  H13  1  0.09285000  0.80162000  0.34046000  1.0
  H  H14  1  0.70880000  0.80136000  0.84060000  1.0
  H  H15  1  0.90712000  0.19838000  0.65953000  1.0
  H  H16  1  0.05930000  0.09816000  0.07887000  1.0
  H  H17  1  0.96157000  0.90227000  0.42102000  1.0
  H  H18  1  0.94070000  0.90190000  0.92116000  1.0
  H  H19  1  0.03829000  0.09768000  0.57895000  1.0
  H  H20  1  0.58162000  0.44042000  0.31639000  1.0
  H  H21  1  0.14132000  0.55997000  0.18358000  1.0
  H  H22  1  0.41847000  0.55955000  0.68362000  1.0
  H  H23  1  0.85882000  0.44010000  0.81640000  1.0
  H  H24  1  0.64344000  0.31558000  0.38488000  1.0
  H  H25  1  0.32793000  0.68483000  0.11511000  1.0
  H  H26  1  0.35657000  0.68429000  0.61510000  1.0
  H  H27  1  0.67219000  0.31531000  0.88489000  1.0
  H  H28  1  0.14728000  0.01579000  0.33891000  1.0
  H  H29  1  0.13074000  0.98432000  0.16084000  1.0
  H  H30  1  0.85267000  0.98419000  0.66105000  1.0
  H  H31  1  0.86923000  0.01573000  0.83919000  1.0
  H  H32  1  0.08354000  0.13633000  0.27005000  1.0
  H  H33  1  0.94647000  0.86372000  0.22966000  1.0
  H  H34  1  0.91647000  0.86374000  0.72994000  1.0
  H  H35  1  0.05351000  0.13624000  0.77034000  1.0
  H  H36  1  0.53869000  0.35171000  0.11081000  1.0
  H  H37  1  0.18682000  0.64809000  0.38921000  1.0
  H  H38  1  0.46137000  0.64837000  0.88923000  1.0
  H  H39  1  0.81300000  0.35179000  0.61074000  1.0
  H  H40  1  0.43131000  0.55175000  0.10283000  1.0
  H  H41  1  0.87950000  0.44813000  0.39712000  1.0
  H  H42  1  0.56876000  0.44834000  0.89721000  1.0
  H  H43  1  0.12031000  0.55179000  0.60285000  1.0
  H  H44  1  0.23785000  0.13841000  0.92014000  1.0
  H  H45  1  0.09905000  0.86121000  0.57993000  1.0
  H  H46  1  0.76222000  0.86170000  0.07989000  1.0
  H  H47  1  0.90090000  0.13865000  0.42006000  1.0
  H  H48  1  0.22149000  0.28219000  0.90481000  1.0
  H  H49  1  0.93899000  0.71730000  0.59513000  1.0
  H  H50  1  0.77857000  0.71792000  0.09522000  1.0
  H  H51  1  0.06090000  0.28256000  0.40485000  1.0
  H  H52  1  0.06274000  0.17945000  0.94137000  1.0
  H  H53  1  0.88291000  0.82023000  0.55868000  1.0
  H  H54  1  0.93733000  0.82065000  0.05866000  1.0
  H  H55  1  0.11705000  0.17969000  0.44131000  1.0
  H  H56  1  0.22988000  0.47561000  0.95043000  1.0
  H  H57  1  0.75411000  0.52431000  0.54949000  1.0
  H  H58  1  0.77023000  0.52453000  0.04961000  1.0
  H  H59  1  0.24579000  0.47557000  0.45049000  1.0
  H  H60  1  0.29733000  0.59630000  0.01619000  1.0
  H  H61  1  0.70085000  0.40360000  0.48373000  1.0
  H  H62  1  0.70273000  0.40380000  0.98385000  1.0
  H  H63  1  0.29901000  0.59630000  0.51624000  1.0
  H  H64  1  0.02968000  0.47142000  0.06023000  1.0
  H  H65  1  0.55777000  0.52834000  0.43972000  1.0
  H  H66  1  0.97037000  0.52866000  0.93979000  1.0
  H  H67  1  0.44213000  0.47161000  0.56028000  1.0
  H  H68  1  0.96223000  0.35346000  0.99305000  1.0
  H  H69  1  0.60856000  0.64652000  0.50682000  1.0
  H  H70  1  0.03785000  0.64664000  0.00697000  1.0
  H  H71  1  0.39136000  0.35340000  0.49318000  1.0
  C  C72  1  0.76827000  0.13789000  0.07329000  1.0
  C  C73  1  0.63071000  0.86239000  0.42669000  1.0
  C  C74  1  0.23180000  0.86221000  0.92674000  1.0
  C  C75  1  0.36915000  0.13747000  0.57326000  1.0
  C  C76  1  0.90946000  0.20300000  0.12063000  1.0
  C  C77  1  0.70686000  0.79742000  0.37931000  1.0
  C  C78  1  0.09059000  0.79710000  0.87941000  1.0
  C  C79  1  0.29300000  0.20244000  0.62064000  1.0
  C  C80  1  0.89896000  0.29423000  0.16971000  1.0
  C  C81  1  0.60513000  0.70613000  0.33026000  1.0
  C  C82  1  0.10113000  0.70590000  0.83033000  1.0
  C  C83  1  0.39480000  0.29369000  0.66969000  1.0
  C  C84  1  0.02683000  0.34861000  0.21579000  1.0
  C  C85  1  0.67855000  0.65171000  0.28417000  1.0
  C  C86  1  0.97328000  0.65152000  0.78424000  1.0
  C  C87  1  0.32145000  0.34814000  0.71579000  1.0
  C  C88  1  0.16644000  0.31317000  0.21144000  1.0
  C  C89  1  0.85356000  0.68717000  0.28849000  1.0
  C  C90  1  0.83364000  0.68693000  0.78858000  1.0
  C  C91  1  0.14646000  0.31276000  0.71149000  1.0
  C  C92  1  0.18044000  0.22424000  0.16241000  1.0
  C  C93  1  0.95654000  0.77615000  0.33749000  1.0
  C  C94  1  0.81962000  0.77584000  0.83762000  1.0
  C  C95  1  0.04342000  0.22382000  0.66249000  1.0
  C  C96  1  0.05071000  0.16828000  0.11729000  1.0
  C  C97  1  0.88281000  0.83215000  0.38262000  1.0
  C  C98  1  0.94932000  0.83180000  0.88274000  1.0
  C  C99  1  0.11706000  0.16778000  0.61735000  1.0
  C  C100  1  0.32883000  0.29630000  0.28989000  1.0
  C  C101  1  0.03235000  0.70397000  0.20998000  1.0
  C  C102  1  0.67125000  0.70374000  0.71012000  1.0
  C  C103  1  0.96771000  0.29603000  0.79002000  1.0
  C  C104  1  0.48792000  0.34704000  0.32150000  1.0
  C  C105  1  0.14082000  0.65327000  0.17842000  1.0
  C  C106  1  0.51214000  0.65293000  0.67850000  1.0
  C  C107  1  0.85928000  0.34679000  0.82157000  1.0
  C  C108  1  0.52156000  0.27802000  0.35945000  1.0
  C  C109  1  0.24346000  0.72229000  0.14050000  1.0
  C  C110  1  0.47845000  0.72189000  0.64054000  1.0
  C  C111  1  0.75665000  0.27782000  0.85951000  1.0
  C  C112  1  0.39954000  0.15899000  0.36678000  1.0
  C  C113  1  0.24029000  0.84126000  0.13313000  1.0
  C  C114  1  0.60042000  0.84094000  0.63320000  1.0
  C  C115  1  0.75977000  0.15884000  0.86689000  1.0
  C  C116  1  0.24291000  0.10800000  0.33348000  1.0
  C  C117  1  0.13441000  0.89218000  0.16632000  1.0
  C  C118  1  0.75705000  0.89197000  0.66649000  1.0
  C  C119  1  0.86561000  0.10787000  0.83370000  1.0
  C  C120  1  0.20668000  0.17557000  0.29506000  1.0
  C  C121  1  0.03059000  0.82459000  0.20472000  1.0
  C  C122  1  0.79334000  0.82447000  0.70493000  1.0
  C  C123  1  0.96943000  0.17542000  0.79529000  1.0
  C  C124  1  0.43505000  0.09379000  0.41176000  1.0
  C  C125  1  0.34117000  0.90645000  0.08822000  1.0
  C  C126  1  0.56490000  0.90613000  0.58821000  1.0
  C  C127  1  0.65891000  0.09366000  0.91181000  1.0
  C  C128  1  0.45577000  0.35782000  0.07732000  1.0
  C  C129  1  0.09779000  0.64203000  0.42268000  1.0
  C  C130  1  0.54429000  0.64227000  0.92271000  1.0
  C  C131  1  0.90204000  0.35785000  0.57728000  1.0
  C  C132  1  0.40394000  0.45709000  0.07387000  1.0
  C  C133  1  0.94671000  0.54278000  0.42608000  1.0
  C  C134  1  0.59612000  0.54299000  0.92616000  1.0
  C  C135  1  0.05312000  0.45712000  0.57389000  1.0
  C  C136  1  0.29607000  0.29504000  0.99469000  1.0
  C  C137  1  0.00081000  0.70479000  0.50528000  1.0
  C  C138  1  0.70399000  0.70506000  0.00533000  1.0
  C  C139  1  0.99908000  0.29509000  0.49470000  1.0
  C  C140  1  0.19985000  0.22011000  0.93709000  1.0
  C  C141  1  0.97941000  0.77955000  0.56291000  1.0
  C  C142  1  0.80022000  0.77999000  0.06294000  1.0
  C  C143  1  0.02052000  0.22033000  0.43707000  1.0
  C  C144  1  0.22153000  0.49205000  0.99833000  1.0
  C  C145  1  0.72933000  0.50787000  0.50159000  1.0
  C  C146  1  0.77856000  0.50806000  0.00170000  1.0
  C  C147  1  0.27055000  0.49203000  0.49839000  1.0
  C  C148  1  0.03737000  0.45756000  0.01219000  1.0
  C  C149  1  0.57963000  0.54238000  0.48775000  1.0
  C  C150  1  0.96271000  0.54253000  0.98783000  1.0
  C  C151  1  0.42028000  0.45755000  0.51224000  1.0
  N  N152  1  0.38846000  0.25757000  0.02806000  1.0
  N  N153  1  0.13068000  0.74227000  0.47194000  1.0
  N  N154  1  0.61161000  0.74252000  0.97196000  1.0
  N  N155  1  0.86919000  0.25760000  0.52803000  1.0
  N  N156  1  0.30307000  0.41673000  0.02143000  1.0
  N  N157  1  0.88614000  0.58315000  0.47850000  1.0
  N  N158  1  0.69701000  0.58337000  0.97860000  1.0
  N  N159  1  0.11372000  0.41674000  0.52147000  1.0
  O  O160  1  0.66082000  0.18943000  0.06878000  1.0
  O  O161  1  0.47175000  0.81073000  0.43116000  1.0
  O  O162  1  0.33928000  0.81070000  0.93123000  1.0
  O  O163  1  0.52811000  0.18912000  0.56880000  1.0
  O  O164  1  0.75991000  0.03030000  0.04005000  1.0
  O  O165  1  0.72978000  0.96988000  0.46003000  1.0
  O  O166  1  0.24011000  0.96977000  0.96001000  1.0
  O  O167  1  0.27006000  0.02997000  0.53992000  1.0
  O  O168  1  0.57756000  0.15069000  0.44274000  1.0
  O  O169  1  0.42701000  0.84957000  0.05736000  1.0
  O  O170  1  0.42238000  0.84921000  0.55723000  1.0
  O  O171  1  0.57297000  0.15049000  0.94264000  1.0
  O  O172  1  0.32038000  0.98672000  0.41856000  1.0
  O  O173  1  0.33352000  0.01348000  0.08133000  1.0
  O  O174  1  0.67957000  0.01317000  0.58140000  1.0
  O  O175  1  0.66666000  0.98669000  0.91872000  1.0
  O  O176  1  0.29845000  0.37361000  0.25605000  1.0
  O  O177  1  0.92498000  0.62668000  0.24386000  1.0
  O  O178  1  0.70164000  0.62646000  0.74397000  1.0
  O  O179  1  0.07507000  0.37328000  0.75612000  1.0
