# generated using pymatgen
data_Cu7H36C18I7N6
_symmetry_space_group_name_H-M   'P 1'
_cell_length_a   17.31175000
_cell_length_b   17.31180000
_cell_length_c   22.31750000
_cell_angle_alpha   90.00000000
_cell_angle_beta   90.00000000
_cell_angle_gamma   120.00028662
_symmetry_Int_Tables_number   1
_chemical_formula_structural   Cu7H36C18I7N6
_chemical_formula_sum   'Cu42 H216 C108 I42 N36'
_cell_volume   5792.39431651
_cell_formula_units_Z   6
loop_
 _symmetry_equiv_pos_site_id
 _symmetry_equiv_pos_as_xyz
  1  'x, y, z'
loop_
 _atom_site_type_symbol
 _atom_site_label
 _atom_site_symmetry_multiplicity
 _atom_site_fract_x
 _atom_site_fract_y
 _atom_site_fract_z
 _atom_site_occupancy
  Cu  Cu0  1  0.50000000  0.50000000  0.94471000  1.0
  Cu  Cu1  1  0.50000000  0.00000000  0.27804000  1.0
  Cu  Cu2  1  0.00000000  0.50000000  0.61138000  1.0
  Cu  Cu3  1  0.00000000  0.50000000  0.72196000  1.0
  Cu  Cu4  1  0.50000000  0.50000000  0.05529000  1.0
  Cu  Cu5  1  0.50000000  0.00000000  0.38863000  1.0
  Cu  Cu6  1  0.34033000  0.42305000  0.99143000  1.0
  Cu  Cu7  1  0.42305000  0.08272000  0.32476000  1.0
  Cu  Cu8  1  0.08272000  0.65967000  0.65810000  1.0
  Cu  Cu9  1  0.65967000  0.57695000  0.99143000  1.0
  Cu  Cu10  1  0.57695000  0.91728000  0.32476000  1.0
  Cu  Cu11  1  0.91728000  0.34033000  0.65810000  1.0
  Cu  Cu12  1  0.08272000  0.42305000  0.67524000  1.0
  Cu  Cu13  1  0.42305000  0.34033000  0.00857000  1.0
  Cu  Cu14  1  0.34033000  0.91728000  0.34190000  1.0
  Cu  Cu15  1  0.91728000  0.57695000  0.67524000  1.0
  Cu  Cu16  1  0.57695000  0.65967000  0.00857000  1.0
  Cu  Cu17  1  0.65967000  0.08272000  0.34190000  1.0
  Cu  Cu18  1  0.74221000  0.22194000  0.94447000  1.0
  Cu  Cu19  1  0.22194000  0.47973000  0.27780000  1.0
  Cu  Cu20  1  0.47973000  0.25779000  0.61114000  1.0
  Cu  Cu21  1  0.25779000  0.77806000  0.94447000  1.0
  Cu  Cu22  1  0.77806000  0.52027000  0.27780000  1.0
  Cu  Cu23  1  0.52027000  0.74221000  0.61114000  1.0
  Cu  Cu24  1  0.47973000  0.22194000  0.72220000  1.0
  Cu  Cu25  1  0.22194000  0.74221000  0.05553000  1.0
  Cu  Cu26  1  0.74221000  0.52027000  0.38886000  1.0
  Cu  Cu27  1  0.52027000  0.77806000  0.72220000  1.0
  Cu  Cu28  1  0.77806000  0.25779000  0.05553000  1.0
  Cu  Cu29  1  0.25779000  0.47973000  0.38886000  1.0
  Cu  Cu30  1  0.89183000  0.25084000  0.98790000  1.0
  Cu  Cu31  1  0.25084000  0.35901000  0.32124000  1.0
  Cu  Cu32  1  0.35901000  0.10817000  0.65457000  1.0
  Cu  Cu33  1  0.10817000  0.74916000  0.98790000  1.0
  Cu  Cu34  1  0.74916000  0.64099000  0.32124000  1.0
  Cu  Cu35  1  0.64099000  0.89183000  0.65457000  1.0
  Cu  Cu36  1  0.35901000  0.25084000  0.67876000  1.0
  Cu  Cu37  1  0.25084000  0.89183000  0.01210000  1.0
  Cu  Cu38  1  0.89183000  0.64099000  0.34543000  1.0
  Cu  Cu39  1  0.64099000  0.74916000  0.67876000  1.0
  Cu  Cu40  1  0.74916000  0.10817000  0.01210000  1.0
  Cu  Cu41  1  0.10817000  0.35901000  0.34543000  1.0
  H  H42  1  0.55707000  0.10093000  0.89994000  1.0
  H  H43  1  0.10094000  0.54386000  0.23327000  1.0
  H  H44  1  0.54387000  0.44293000  0.56660000  1.0
  H  H45  1  0.44293000  0.89907000  0.89993000  1.0
  H  H46  1  0.89906000  0.45613000  0.23327000  1.0
  H  H47  1  0.45613000  0.55707000  0.56660000  1.0
  H  H48  1  0.54386000  0.10094000  0.76673000  1.0
  H  H49  1  0.10094000  0.55708000  0.10006000  1.0
  H  H50  1  0.55707000  0.45613000  0.43340000  1.0
  H  H51  1  0.45614000  0.89906000  0.76673000  1.0
  H  H52  1  0.89906000  0.44292000  0.10006000  1.0
  H  H53  1  0.44293000  0.54387000  0.43340000  1.0
  H  H54  1  0.63106000  0.09616000  0.84694000  1.0
  H  H55  1  0.09616000  0.46510000  0.18027000  1.0
  H  H56  1  0.46509000  0.36894000  0.51360000  1.0
  H  H57  1  0.36894000  0.90384000  0.84694000  1.0
  H  H58  1  0.90384000  0.53490000  0.18027000  1.0
  H  H59  1  0.53491000  0.63106000  0.51360000  1.0
  H  H60  1  0.46509000  0.09615000  0.81973000  1.0
  H  H61  1  0.09616000  0.63106000  0.15306000  1.0
  H  H62  1  0.63106000  0.53491000  0.48639000  1.0
  H  H63  1  0.53491000  0.90385000  0.81973000  1.0
  H  H64  1  0.90384000  0.36894000  0.15306000  1.0
  H  H65  1  0.36894000  0.46509000  0.48639000  1.0
  H  H66  1  0.75053000  0.23429000  0.80601000  1.0
  H  H67  1  0.23428000  0.48375000  0.13934000  1.0
  H  H68  1  0.48375000  0.24947000  0.47268000  1.0
  H  H69  1  0.24947000  0.76571000  0.80601000  1.0
  H  H70  1  0.76572000  0.51625000  0.13934000  1.0
  H  H71  1  0.51625000  0.75053000  0.47268000  1.0
  H  H72  1  0.48376000  0.23429000  0.86066000  1.0
  H  H73  1  0.23428000  0.75052000  0.19399000  1.0
  H  H74  1  0.75053000  0.51625000  0.52732000  1.0
  H  H75  1  0.51624000  0.76571000  0.86066000  1.0
  H  H76  1  0.76572000  0.24948000  0.19399000  1.0
  H  H77  1  0.24947000  0.48375000  0.52732000  1.0
  H  H78  1  0.76942000  0.33759000  0.83407000  1.0
  H  H79  1  0.33759000  0.56817000  0.16740000  1.0
  H  H80  1  0.56817000  0.23058000  0.50074000  1.0
  H  H81  1  0.23058000  0.66241000  0.83407000  1.0
  H  H82  1  0.66241000  0.43183000  0.16740000  1.0
  H  H83  1  0.43183000  0.76942000  0.50074000  1.0
  H  H84  1  0.56817000  0.33759000  0.83260000  1.0
  H  H85  1  0.33759000  0.76942000  0.16593000  1.0
  H  H86  1  0.76942000  0.43183000  0.49926000  1.0
  H  H87  1  0.43183000  0.66241000  0.83260000  1.0
  H  H88  1  0.66241000  0.23058000  0.16593000  1.0
  H  H89  1  0.23058000  0.56817000  0.49926000  1.0
  H  H90  1  0.04881000  0.40253000  0.92351000  1.0
  H  H91  1  0.40253000  0.35372000  0.25684000  1.0
  H  H92  1  0.35372000  0.95119000  0.59018000  1.0
  H  H93  1  0.95119000  0.59747000  0.92351000  1.0
  H  H94  1  0.59747000  0.64628000  0.25684000  1.0
  H  H95  1  0.64628000  0.04881000  0.59018000  1.0
  H  H96  1  0.35372000  0.40253000  0.74316000  1.0
  H  H97  1  0.40252000  0.04880000  0.07649000  1.0
  H  H98  1  0.04881000  0.64628000  0.40982000  1.0
  H  H99  1  0.64628000  0.59747000  0.74316000  1.0
  H  H100  1  0.59748000  0.95120000  0.07649000  1.0
  H  H101  1  0.95119000  0.35372000  0.40982000  1.0
  H  H102  1  0.03920000  0.30391000  0.89235000  1.0
  H  H103  1  0.30392000  0.26472000  0.22568000  1.0
  H  H104  1  0.26472000  0.96081000  0.55902000  1.0
  H  H105  1  0.96080000  0.69608000  0.89235000  1.0
  H  H106  1  0.69608000  0.73528000  0.22568000  1.0
  H  H107  1  0.73528000  0.03919000  0.55902000  1.0
  H  H108  1  0.26472000  0.30392000  0.77432000  1.0
  H  H109  1  0.30391000  0.03920000  0.10765000  1.0
  H  H110  1  0.03920000  0.73529000  0.44098000  1.0
  H  H111  1  0.73528000  0.69608000  0.77432000  1.0
  H  H112  1  0.69609000  0.96080000  0.10765000  1.0
  H  H113  1  0.96080000  0.26471000  0.44098000  1.0
  H  H114  1  0.01483000  0.18235000  0.95508000  1.0
  H  H115  1  0.18235000  0.16752000  0.28840000  1.0
  H  H116  1  0.16752000  0.98517000  0.62175000  1.0
  H  H117  1  0.98517000  0.81765000  0.95507000  1.0
  H  H118  1  0.81765000  0.83248000  0.28840000  1.0
  H  H119  1  0.83248000  0.01483000  0.62175000  1.0
  H  H120  1  0.16752000  0.18235000  0.71160000  1.0
  H  H121  1  0.18235000  0.01483000  0.04492000  1.0
  H  H122  1  0.01483000  0.83248000  0.37825000  1.0
  H  H123  1  0.83248000  0.81765000  0.71160000  1.0
  H  H124  1  0.81765000  0.98517000  0.04492000  1.0
  H  H125  1  0.98517000  0.16752000  0.37825000  1.0
  H  H126  1  0.02179000  0.19618000  0.03416000  1.0
  H  H127  1  0.19617000  0.17438000  0.36749000  1.0
  H  H128  1  0.17439000  0.97822000  0.70083000  1.0
  H  H129  1  0.97821000  0.80382000  0.03416000  1.0
  H  H130  1  0.80383000  0.82562000  0.36749000  1.0
  H  H131  1  0.82561000  0.02178000  0.70083000  1.0
  H  H132  1  0.17438000  0.19617000  0.63251000  1.0
  H  H133  1  0.19617000  0.02178000  0.96584000  1.0
  H  H134  1  0.02178000  0.82561000  0.29917000  1.0
  H  H135  1  0.82562000  0.80383000  0.63251000  1.0
  H  H136  1  0.80383000  0.97822000  0.96584000  1.0
  H  H137  1  0.97822000  0.17439000  0.29917000  1.0
  H  H138  1  0.03657000  0.33069000  0.07799000  1.0
  H  H139  1  0.33069000  0.29412000  0.41132000  1.0
  H  H140  1  0.29412000  0.96343000  0.74466000  1.0
  H  H141  1  0.96343000  0.66931000  0.07799000  1.0
  H  H142  1  0.66931000  0.70588000  0.41132000  1.0
  H  H143  1  0.70588000  0.03657000  0.74466000  1.0
  H  H144  1  0.29412000  0.33069000  0.58868000  1.0
  H  H145  1  0.33069000  0.03657000  0.92201000  1.0
  H  H146  1  0.03657000  0.70588000  0.25534000  1.0
  H  H147  1  0.70588000  0.66931000  0.58868000  1.0
  H  H148  1  0.66931000  0.96343000  0.92201000  1.0
  H  H149  1  0.96343000  0.29412000  0.25534000  1.0
  H  H150  1  0.05658000  0.42088000  0.02974000  1.0
  H  H151  1  0.42088000  0.36430000  0.36307000  1.0
  H  H152  1  0.36430000  0.94342000  0.69641000  1.0
  H  H153  1  0.94342000  0.57912000  0.02974000  1.0
  H  H154  1  0.57912000  0.63570000  0.36307000  1.0
  H  H155  1  0.63570000  0.05658000  0.69641000  1.0
  H  H156  1  0.36430000  0.42088000  0.63693000  1.0
  H  H157  1  0.42088000  0.05658000  0.97026000  1.0
  H  H158  1  0.05658000  0.63570000  0.30359000  1.0
  H  H159  1  0.63570000  0.57912000  0.63693000  1.0
  H  H160  1  0.57912000  0.94342000  0.97026000  1.0
  H  H161  1  0.94342000  0.36430000  0.30359000  1.0
  H  H162  1  0.21007000  0.47212000  0.03799000  1.0
  H  H163  1  0.47212000  0.26205000  0.37132000  1.0
  H  H164  1  0.26205000  0.78993000  0.70466000  1.0
  H  H165  1  0.78993000  0.52788000  0.03799000  1.0
  H  H166  1  0.52788000  0.73795000  0.37132000  1.0
  H  H167  1  0.73795000  0.21007000  0.70466000  1.0
  H  H168  1  0.26204000  0.47211000  0.62868000  1.0
  H  H169  1  0.47212000  0.21007000  0.96201000  1.0
  H  H170  1  0.21007000  0.73795000  0.29534000  1.0
  H  H171  1  0.73796000  0.52789000  0.62868000  1.0
  H  H172  1  0.52788000  0.78993000  0.96201000  1.0
  H  H173  1  0.78993000  0.26205000  0.29534000  1.0
  H  H174  1  0.18911000  0.37544000  0.07912000  1.0
  H  H175  1  0.37544000  0.18633000  0.41246000  1.0
  H  H176  1  0.18633000  0.81089000  0.74580000  1.0
  H  H177  1  0.81089000  0.62456000  0.07912000  1.0
  H  H178  1  0.62456000  0.81367000  0.41246000  1.0
  H  H179  1  0.81367000  0.18911000  0.74580000  1.0
  H  H180  1  0.18633000  0.37544000  0.58754000  1.0
  H  H181  1  0.37544000  0.18911000  0.92088000  1.0
  H  H182  1  0.18911000  0.81367000  0.25421000  1.0
  H  H183  1  0.81367000  0.62456000  0.58754000  1.0
  H  H184  1  0.62456000  0.81089000  0.92088000  1.0
  H  H185  1  0.81089000  0.18633000  0.25420000  1.0
  H  H186  1  0.17629000  0.24960000  0.02815000  1.0
  H  H187  1  0.24959000  0.07331000  0.36148000  1.0
  H  H188  1  0.07331000  0.82372000  0.69482000  1.0
  H  H189  1  0.82372000  0.75041000  0.02815000  1.0
  H  H190  1  0.75041000  0.92669000  0.36148000  1.0
  H  H191  1  0.92669000  0.17628000  0.69482000  1.0
  H  H192  1  0.07331000  0.24959000  0.63852000  1.0
  H  H193  1  0.24959000  0.17628000  0.97185000  1.0
  H  H194  1  0.17628000  0.92669000  0.30518000  1.0
  H  H195  1  0.92669000  0.75041000  0.63852000  1.0
  H  H196  1  0.75041000  0.82372000  0.97185000  1.0
  H  H197  1  0.82372000  0.07331000  0.30518000  1.0
  H  H198  1  0.17180000  0.24560000  0.94845000  1.0
  H  H199  1  0.24561000  0.07381000  0.28177000  1.0
  H  H200  1  0.07380000  0.82819000  0.61512000  1.0
  H  H201  1  0.82820000  0.75440000  0.94844000  1.0
  H  H202  1  0.75439000  0.92619000  0.28177000  1.0
  H  H203  1  0.92620000  0.17181000  0.61512000  1.0
  H  H204  1  0.07380000  0.24560000  0.71823000  1.0
  H  H205  1  0.24560000  0.17180000  0.05155000  1.0
  H  H206  1  0.17180000  0.92620000  0.38488000  1.0
  H  H207  1  0.92620000  0.75440000  0.71823000  1.0
  H  H208  1  0.75439000  0.82819000  0.05155000  1.0
  H  H209  1  0.82820000  0.07380000  0.38488000  1.0
  H  H210  1  0.67087000  0.34237000  0.90443000  1.0
  H  H211  1  0.34237000  0.67150000  0.23776000  1.0
  H  H212  1  0.67150000  0.32914000  0.57109000  1.0
  H  H213  1  0.32913000  0.65764000  0.90443000  1.0
  H  H214  1  0.65763000  0.32850000  0.23776000  1.0
  H  H215  1  0.32850000  0.67086000  0.57109000  1.0
  H  H216  1  0.67150000  0.34237000  0.76224000  1.0
  H  H217  1  0.34237000  0.67087000  0.09557000  1.0
  H  H218  1  0.67087000  0.32851000  0.42891000  1.0
  H  H219  1  0.32850000  0.65763000  0.76224000  1.0
  H  H220  1  0.65763000  0.32913000  0.09557000  1.0
  H  H221  1  0.32913000  0.67149000  0.42891000  1.0
  H  H222  1  0.58517000  0.24384000  0.93683000  1.0
  H  H223  1  0.24383000  0.65866000  0.27016000  1.0
  H  H224  1  0.65867000  0.41484000  0.60349000  1.0
  H  H225  1  0.41483000  0.75616000  0.93683000  1.0
  H  H226  1  0.75617000  0.34134000  0.27016000  1.0
  H  H227  1  0.34133000  0.58516000  0.60349000  1.0
  H  H228  1  0.65867000  0.24384000  0.72984000  1.0
  H  H229  1  0.24384000  0.58517000  0.06317000  1.0
  H  H230  1  0.58516000  0.34133000  0.39651000  1.0
  H  H231  1  0.34133000  0.75616000  0.72984000  1.0
  H  H232  1  0.75616000  0.41483000  0.06317000  1.0
  H  H233  1  0.41484000  0.65867000  0.39651000  1.0
  H  H234  1  0.19734000  0.37503000  0.89257000  1.0
  H  H235  1  0.37503000  0.17769000  0.22590000  1.0
  H  H236  1  0.17769000  0.80266000  0.55924000  1.0
  H  H237  1  0.80266000  0.62497000  0.89257000  1.0
  H  H238  1  0.62497000  0.82231000  0.22590000  1.0
  H  H239  1  0.82231000  0.19734000  0.55924000  1.0
  H  H240  1  0.17769000  0.37503000  0.77410000  1.0
  H  H241  1  0.37503000  0.19734000  0.10743000  1.0
  H  H242  1  0.19734000  0.82232000  0.44076000  1.0
  H  H243  1  0.82231000  0.62497000  0.77410000  1.0
  H  H244  1  0.62497000  0.80266000  0.10743000  1.0
  H  H245  1  0.80266000  0.17769000  0.44076000  1.0
  H  H246  1  0.20487000  0.46820000  0.93152000  1.0
  H  H247  1  0.46819000  0.26332000  0.26485000  1.0
  H  H248  1  0.26333000  0.79514000  0.59819000  1.0
  H  H249  1  0.79513000  0.53180000  0.93152000  1.0
  H  H250  1  0.53181000  0.73668000  0.26485000  1.0
  H  H251  1  0.73667000  0.20486000  0.59819000  1.0
  H  H252  1  0.26333000  0.46820000  0.73515000  1.0
  H  H253  1  0.46819000  0.20486000  0.06848000  1.0
  H  H254  1  0.20486000  0.73667000  0.40181000  1.0
  H  H255  1  0.73667000  0.53180000  0.73515000  1.0
  H  H256  1  0.53181000  0.79514000  0.06848000  1.0
  H  H257  1  0.79514000  0.26333000  0.40181000  1.0
  C  C258  1  0.59576000  0.13193000  0.85911000  1.0
  C  C259  1  0.13193000  0.53617000  0.19245000  1.0
  C  C260  1  0.53617000  0.40425000  0.52578000  1.0
  C  C261  1  0.40425000  0.86808000  0.85911000  1.0
  C  C262  1  0.86807000  0.46383000  0.19245000  1.0
  C  C263  1  0.46383000  0.59575000  0.52578000  1.0
  C  C264  1  0.53617000  0.13193000  0.80755000  1.0
  C  C265  1  0.13193000  0.59576000  0.14089000  1.0
  C  C266  1  0.59575000  0.46382000  0.47422000  1.0
  C  C267  1  0.46383000  0.86807000  0.80755000  1.0
  C  C268  1  0.86807000  0.40424000  0.14089000  1.0
  C  C269  1  0.40425000  0.53618000  0.47422000  1.0
  C  C270  1  0.71709000  0.27048000  0.82077000  1.0
  C  C271  1  0.27048000  0.55339000  0.15410000  1.0
  C  C272  1  0.55339000  0.28291000  0.48743000  1.0
  C  C273  1  0.28291000  0.72952000  0.82077000  1.0
  C  C274  1  0.72952000  0.44661000  0.15410000  1.0
  C  C275  1  0.44661000  0.71709000  0.48743000  1.0
  C  C276  1  0.55339000  0.27048000  0.84590000  1.0
  C  C277  1  0.27048000  0.71709000  0.17923000  1.0
  C  C278  1  0.71709000  0.44661000  0.51257000  1.0
  C  C279  1  0.44661000  0.72952000  0.84590000  1.0
  C  C280  1  0.72952000  0.28291000  0.17923000  1.0
  C  C281  1  0.28291000  0.55339000  0.51257000  1.0
  C  C282  1  0.06885000  0.35198000  0.92917000  1.0
  C  C283  1  0.35198000  0.28313000  0.26250000  1.0
  C  C284  1  0.28313000  0.93115000  0.59584000  1.0
  C  C285  1  0.93115000  0.64802000  0.92917000  1.0
  C  C286  1  0.64802000  0.71687000  0.26250000  1.0
  C  C287  1  0.71687000  0.06885000  0.59584000  1.0
  C  C288  1  0.28313000  0.35198000  0.73750000  1.0
  C  C289  1  0.35198000  0.06885000  0.07083000  1.0
  C  C290  1  0.06885000  0.71687000  0.40416000  1.0
  C  C291  1  0.71687000  0.64802000  0.73750000  1.0
  C  C292  1  0.64802000  0.93115000  0.07083000  1.0
  C  C293  1  0.93115000  0.28313000  0.40416000  1.0
  C  C294  1  0.04987000  0.23010000  0.99142000  1.0
  C  C295  1  0.23010000  0.18023000  0.32474000  1.0
  C  C296  1  0.18023000  0.95013000  0.65808000  1.0
  C  C297  1  0.95013000  0.76990000  0.99142000  1.0
  C  C298  1  0.76990000  0.81977000  0.32474000  1.0
  C  C299  1  0.81977000  0.04987000  0.65809000  1.0
  C  C300  1  0.18023000  0.23010000  0.67526000  1.0
  C  C301  1  0.23010000  0.04987000  0.00858000  1.0
  C  C302  1  0.04987000  0.81977000  0.34191000  1.0
  C  C303  1  0.81977000  0.76990000  0.67526000  1.0
  C  C304  1  0.76990000  0.95013000  0.00858000  1.0
  C  C305  1  0.95013000  0.18023000  0.34192000  1.0
  C  C306  1  0.07008000  0.36586000  0.03665000  1.0
  C  C307  1  0.36586000  0.29578000  0.36999000  1.0
  C  C308  1  0.29577000  0.92992000  0.70333000  1.0
  C  C309  1  0.92992000  0.63415000  0.03665000  1.0
  C  C310  1  0.63414000  0.70422000  0.36999000  1.0
  C  C311  1  0.70423000  0.07008000  0.70333000  1.0
  C  C312  1  0.29577000  0.36585000  0.63001000  1.0
  C  C313  1  0.36586000  0.07009000  0.96335000  1.0
  C  C314  1  0.07008000  0.70422000  0.29667000  1.0
  C  C315  1  0.70423000  0.63415000  0.63001000  1.0
  C  C316  1  0.63414000  0.92991000  0.96335000  1.0
  C  C317  1  0.92992000  0.29578000  0.29667000  1.0
  C  C318  1  0.17089000  0.39920000  0.03886000  1.0
  C  C319  1  0.39921000  0.22832000  0.37219000  1.0
  C  C320  1  0.22831000  0.82910000  0.70553000  1.0
  C  C321  1  0.82911000  0.60080000  0.03886000  1.0
  C  C322  1  0.60079000  0.77168000  0.37219000  1.0
  C  C323  1  0.77169000  0.17090000  0.70553000  1.0
  C  C324  1  0.22831000  0.39920000  0.62781000  1.0
  C  C325  1  0.39920000  0.17089000  0.96114000  1.0
  C  C326  1  0.17089000  0.77168000  0.29447000  1.0
  C  C327  1  0.77169000  0.60079000  0.62781000  1.0
  C  C328  1  0.60080000  0.82911000  0.96114000  1.0
  C  C329  1  0.82911000  0.22832000  0.29447000  1.0
  C  C330  1  0.15202000  0.26845000  0.98847000  1.0
  C  C331  1  0.26845000  0.11643000  0.32180000  1.0
  C  C332  1  0.11643000  0.84798000  0.65514000  1.0
  C  C333  1  0.84798000  0.73155000  0.98847000  1.0
  C  C334  1  0.73155000  0.88357000  0.32180000  1.0
  C  C335  1  0.88357000  0.15202000  0.65514000  1.0
  C  C336  1  0.11643000  0.26845000  0.67820000  1.0
  C  C337  1  0.26845000  0.15202000  0.01153000  1.0
  C  C338  1  0.15202000  0.88357000  0.34486000  1.0
  C  C339  1  0.88357000  0.73155000  0.67820000  1.0
  C  C340  1  0.73155000  0.84798000  0.01153000  1.0
  C  C341  1  0.84798000  0.11643000  0.34486000  1.0
  C  C342  1  0.61879000  0.27378000  0.89447000  1.0
  C  C343  1  0.27378000  0.65499000  0.22780000  1.0
  C  C344  1  0.65499000  0.38121000  0.56114000  1.0
  C  C345  1  0.38121000  0.72622000  0.89447000  1.0
  C  C346  1  0.72622000  0.34501000  0.22780000  1.0
  C  C347  1  0.34501000  0.61879000  0.56114000  1.0
  C  C348  1  0.65499000  0.27378000  0.77220000  1.0
  C  C349  1  0.27378000  0.61879000  0.10553000  1.0
  C  C350  1  0.61879000  0.34501000  0.43886000  1.0
  C  C351  1  0.34501000  0.72622000  0.77220000  1.0
  C  C352  1  0.72622000  0.38121000  0.10553000  1.0
  C  C353  1  0.38121000  0.65499000  0.43886000  1.0
  C  C354  1  0.17180000  0.39502000  0.93110000  1.0
  C  C355  1  0.39503000  0.22323000  0.26443000  1.0
  C  C356  1  0.22322000  0.82820000  0.59777000  1.0
  C  C357  1  0.82820000  0.60498000  0.93110000  1.0
  C  C358  1  0.60497000  0.77678000  0.26443000  1.0
  C  C359  1  0.77678000  0.17180000  0.59777000  1.0
  C  C360  1  0.22322000  0.39502000  0.73557000  1.0
  C  C361  1  0.39502000  0.17180000  0.06890000  1.0
  C  C362  1  0.17180000  0.77678000  0.40223000  1.0
  C  C363  1  0.77678000  0.60498000  0.73557000  1.0
  C  C364  1  0.60498000  0.82820000  0.06890000  1.0
  C  C365  1  0.82820000  0.22322000  0.40223000  1.0
  I  I366  1  0.82387000  0.13818000  0.89570000  1.0
  I  I367  1  0.13817000  0.31430000  0.22903000  1.0
  I  I368  1  0.31431000  0.17614000  0.56237000  1.0
  I  I369  1  0.17613000  0.86182000  0.89570000  1.0
  I  I370  1  0.86183000  0.68569000  0.22903000  1.0
  I  I371  1  0.68569000  0.82386000  0.56237000  1.0
  I  I372  1  0.31431000  0.13818000  0.77097000  1.0
  I  I373  1  0.13817000  0.82386000  0.10430000  1.0
  I  I374  1  0.82386000  0.68569000  0.43763000  1.0
  I  I375  1  0.68569000  0.86182000  0.77097000  1.0
  I  I376  1  0.86183000  0.17614000  0.10430000  1.0
  I  I377  1  0.17614000  0.31431000  0.43763000  1.0
  I  I378  1  0.86508000  0.38969000  0.96913000  1.0
  I  I379  1  0.38969000  0.52461000  0.30246000  1.0
  I  I380  1  0.52461000  0.13492000  0.63579000  1.0
  I  I381  1  0.13492000  0.61031000  0.96913000  1.0
  I  I382  1  0.61031000  0.47539000  0.30246000  1.0
  I  I383  1  0.47539000  0.86508000  0.63579000  1.0
  I  I384  1  0.52461000  0.38969000  0.69754000  1.0
  I  I385  1  0.38969000  0.86508000  0.03087000  1.0
  I  I386  1  0.86508000  0.47539000  0.36421000  1.0
  I  I387  1  0.47539000  0.61031000  0.69754000  1.0
  I  I388  1  0.61031000  0.13492000  0.03087000  1.0
  I  I389  1  0.13492000  0.52461000  0.36421000  1.0
  I  I390  1  0.37417000  0.35964000  0.89329000  1.0
  I  I391  1  0.35964000  0.98547000  0.22662000  1.0
  I  I392  1  0.98547000  0.62583000  0.55996000  1.0
  I  I393  1  0.62583000  0.64036000  0.89329000  1.0
  I  I394  1  0.64036000  0.01453000  0.22662000  1.0
  I  I395  1  0.01453000  0.37417000  0.55996000  1.0
  I  I396  1  0.98547000  0.35964000  0.77338000  1.0
  I  I397  1  0.35964000  0.37417000  0.10671000  1.0
  I  I398  1  0.37417000  0.01453000  0.44004000  1.0
  I  I399  1  0.01453000  0.64036000  0.77338000  1.0
  I  I400  1  0.64036000  0.62583000  0.10671000  1.0
  I  I401  1  0.62583000  0.98547000  0.44004000  1.0
  I  I402  1  0.40626000  0.59374000  0.00000000  1.0
  I  I403  1  0.59374000  0.18748000  0.33333333  1.0
  I  I404  1  0.18748000  0.59374000  0.66666667  1.0
  I  I405  1  0.59374000  0.40626000  0.00000000  1.0
  I  I406  1  0.40626000  0.81252000  0.33333333  1.0
  I  I407  1  0.81252000  0.40626000  0.66666667  1.0
  N  N408  1  0.02844000  0.30293000  0.98578000  1.0
  N  N409  1  0.30293000  0.27449000  0.31911000  1.0
  N  N410  1  0.27449000  0.97156000  0.65245000  1.0
  N  N411  1  0.97156000  0.69707000  0.98578000  1.0
  N  N412  1  0.69707000  0.72551000  0.31911000  1.0
  N  N413  1  0.72551000  0.02844000  0.65245000  1.0
  N  N414  1  0.27449000  0.30293000  0.68089000  1.0
  N  N415  1  0.30293000  0.02844000  0.01422000  1.0
  N  N416  1  0.02844000  0.72551000  0.34755000  1.0
  N  N417  1  0.72551000  0.69707000  0.68089000  1.0
  N  N418  1  0.69707000  0.97156000  0.01422000  1.0
  N  N419  1  0.97156000  0.27449000  0.34755000  1.0
  N  N420  1  0.19962000  0.36735000  0.98636000  1.0
  N  N421  1  0.36735000  0.16773000  0.31969000  1.0
  N  N422  1  0.16773000  0.80038000  0.65303000  1.0
  N  N423  1  0.80038000  0.63265000  0.98636000  1.0
  N  N424  1  0.63265000  0.83227000  0.31969000  1.0
  N  N425  1  0.83227000  0.19962000  0.65303000  1.0
  N  N426  1  0.16773000  0.36735000  0.68031000  1.0
  N  N427  1  0.36735000  0.19962000  0.01364000  1.0
  N  N428  1  0.19962000  0.83227000  0.34697000  1.0
  N  N429  1  0.83227000  0.63265000  0.68031000  1.0
  N  N430  1  0.63265000  0.80038000  0.01364000  1.0
  N  N431  1  0.80038000  0.16773000  0.34697000  1.0
  N  N432  1  0.66431000  0.22479000  0.87499000  1.0
  N  N433  1  0.22480000  0.56049000  0.20832000  1.0
  N  N434  1  0.56048000  0.33568000  0.54166000  1.0
  N  N435  1  0.33569000  0.77521000  0.87499000  1.0
  N  N436  1  0.77520000  0.43951000  0.20832000  1.0
  N  N437  1  0.43952000  0.66432000  0.54166000  1.0
  N  N438  1  0.56048000  0.22479000  0.79168000  1.0
  N  N439  1  0.22480000  0.66431000  0.12501000  1.0
  N  N440  1  0.66431000  0.43951000  0.45834000  1.0
  N  N441  1  0.43952000  0.77521000  0.79168000  1.0
  N  N442  1  0.77520000  0.33568000  0.12501000  1.0
  N  N443  1  0.33569000  0.56049000  0.45834000  1.0
