# generated using pymatgen
data_CuH6C6(SO)2
_symmetry_space_group_name_H-M   'P 1'
_cell_length_a   6.73536000
_cell_length_b   10.05227532
_cell_length_c   12.50070000
_cell_angle_alpha   89.99859141
_cell_angle_beta   89.99910000
_cell_angle_gamma   71.05782096
_symmetry_Int_Tables_number   1
_chemical_formula_structural   CuH6C6(SO)2
_chemical_formula_sum   'Cu4 H24 C24 S8 O8'
_cell_volume   800.53486211
_cell_formula_units_Z   4
loop_
 _symmetry_equiv_pos_site_id
 _symmetry_equiv_pos_as_xyz
  1  'x, y, z'
loop_
 _atom_site_type_symbol
 _atom_site_label
 _atom_site_symmetry_multiplicity
 _atom_site_fract_x
 _atom_site_fract_y
 _atom_site_fract_z
 _atom_site_occupancy
  Cu  Cu0  1  0.03997000  0.89405000  0.80040000  1.0
  Cu  Cu1  1  0.96004000  0.60593000  0.30040000  1.0
  Cu  Cu2  1  0.96002000  0.10594000  0.19960000  1.0
  Cu  Cu3  1  0.03998000  0.39406000  0.69959000  1.0
  H  H4  1  0.08154000  0.36260000  0.96104000  1.0
  H  H5  1  0.91844000  0.13739000  0.46104000  1.0
  H  H6  1  0.91843000  0.63740000  0.03897000  1.0
  H  H7  1  0.08155000  0.86261000  0.53895000  1.0
  H  H8  1  0.85631000  0.40845000  0.04919000  1.0
  H  H9  1  0.14367000  0.09155000  0.54919000  1.0
  H  H10  1  0.14367000  0.59155000  0.95082000  1.0
  H  H11  1  0.85631000  0.90845000  0.45081000  1.0
  H  H12  1  0.11135000  0.35343000  0.10582000  1.0
  H  H13  1  0.88864000  0.14657000  0.60583000  1.0
  H  H14  1  0.88863000  0.64656000  0.89419000  1.0
  H  H15  1  0.11135000  0.85344000  0.39417000  1.0
  H  H16  1  0.64001000  0.77720000  0.72287000  1.0
  H  H17  1  0.35997000  0.72282000  0.22287000  1.0
  H  H18  1  0.35997000  0.22280000  0.27713000  1.0
  H  H19  1  0.64006000  0.27719000  0.77713000  1.0
  H  H20  1  0.66949000  0.87696000  0.60929000  1.0
  H  H21  1  0.33049000  0.62306000  0.10928000  1.0
  H  H22  1  0.33049000  0.12304000  0.39071000  1.0
  H  H23  1  0.66953000  0.37696000  0.89071000  1.0
  H  H24  1  0.42347000  0.92560000  0.68009000  1.0
  H  H25  1  0.57652000  0.57443000  0.18008000  1.0
  H  H26  1  0.57651000  0.07441000  0.31991000  1.0
  H  H27  1  0.42351000  0.42557000  0.81991000  1.0
  C  C28  1  0.22886000  0.13683000  0.82217000  1.0
  C  C29  1  0.77114000  0.36316000  0.32217000  1.0
  C  C30  1  0.77112000  0.86317000  0.17784000  1.0
  C  C31  1  0.22888000  0.63683000  0.67783000  1.0
  C  C32  1  0.36987000  0.06355000  0.91363000  1.0
  C  C33  1  0.63013000  0.43644000  0.41363000  1.0
  C  C34  1  0.63011000  0.93645000  0.08637000  1.0
  C  C35  1  0.36988000  0.56356000  0.58636000  1.0
  C  C36  1  0.28538000  0.06946000  0.01701000  1.0
  C  C37  1  0.71464000  0.43053000  0.51701000  1.0
  C  C38  1  0.71462000  0.93054000  0.98299000  1.0
  C  C39  1  0.28537000  0.56947000  0.48299000  1.0
  C  C40  1  0.58511000  0.99422000  0.89610000  1.0
  C  C41  1  0.41489000  0.50579000  0.39609000  1.0
  C  C42  1  0.41487000  0.00579000  0.10390000  1.0
  C  C43  1  0.58512000  0.49422000  0.60390000  1.0
  C  C44  1  0.01855000  0.34038000  0.03722000  1.0
  C  C45  1  0.98143000  0.15962000  0.53723000  1.0
  C  C46  1  0.98143000  0.65962000  0.96279000  1.0
  C  C47  1  0.01856000  0.84038000  0.46277000  1.0
  C  C48  1  0.59405000  0.88253000  0.68768000  1.0
  C  C49  1  0.40595000  0.61749000  0.18767000  1.0
  C  C50  1  0.40594000  0.11748000  0.31233000  1.0
  C  C51  1  0.59408000  0.38252000  0.81232000  1.0
  S  S52  1  0.01061000  0.16117000  0.03358000  1.0
  S  S53  1  0.98939000  0.33883000  0.53358000  1.0
  S  S54  1  0.98939000  0.83883000  0.96642000  1.0
  S  S55  1  0.01062000  0.66117000  0.46641000  1.0
  S  S56  1  0.69402000  0.99884000  0.76632000  1.0
  S  S57  1  0.30599000  0.50116000  0.26631000  1.0
  S  S58  1  0.30598000  0.00115000  0.23368000  1.0
  S  S59  1  0.69403000  0.49885000  0.73368000  1.0
  O  O60  1  0.13489000  0.06963000  0.76785000  1.0
  O  O61  1  0.86512000  0.43035000  0.26785000  1.0
  O  O62  1  0.86509000  0.93037000  0.23216000  1.0
  O  O63  1  0.13493000  0.56961000  0.73215000  1.0
  O  O64  1  0.21845000  0.26433000  0.80736000  1.0
  O  O65  1  0.78156000  0.23566000  0.30737000  1.0
  O  O66  1  0.78154000  0.73568000  0.19264000  1.0
  O  O67  1  0.21844000  0.76433000  0.69263000  1.0
