# generated using pymatgen
data_NiH5C5N2ClO3
_symmetry_space_group_name_H-M   'P 1'
_cell_length_a   6.71986000
_cell_length_b   10.41760000
_cell_length_c   11.44160000
_cell_angle_alpha   89.99940000
_cell_angle_beta   87.78140000
_cell_angle_gamma   89.99950000
_symmetry_Int_Tables_number   1
_chemical_formula_structural   NiH5C5N2ClO3
_chemical_formula_sum   'Ni4 H20 C20 N8 Cl4 O12'
_cell_volume   800.36667106
_cell_formula_units_Z   4
loop_
 _symmetry_equiv_pos_site_id
 _symmetry_equiv_pos_as_xyz
  1  'x, y, z'
loop_
 _atom_site_type_symbol
 _atom_site_label
 _atom_site_symmetry_multiplicity
 _atom_site_fract_x
 _atom_site_fract_y
 _atom_site_fract_z
 _atom_site_occupancy
  Ni  Ni0  1  0.27485000  0.77928000  0.70238000  1.0
  Ni  Ni1  1  0.77881000  0.22577000  0.30151000  1.0
  Ni  Ni2  1  0.27880000  0.27422000  0.80151000  1.0
  Ni  Ni3  1  0.77485000  0.72073000  0.20237000  1.0
  H  H4  1  0.00544000  0.55724000  0.04532000  1.0
  H  H5  1  0.50966000  0.44794000  0.95706000  1.0
  H  H6  1  0.00965000  0.05205000  0.45707000  1.0
  H  H7  1  0.50546000  0.94277000  0.54533000  1.0
  H  H8  1  0.85733000  0.94605000  0.05152000  1.0
  H  H9  1  0.39225000  0.05495000  0.95071000  1.0
  H  H10  1  0.89226000  0.44504000  0.45069000  1.0
  H  H11  1  0.35731000  0.55397000  0.55153000  1.0
  H  H12  1  0.03473000  0.97762000  0.85918000  1.0
  H  H13  1  0.54074000  0.02940000  0.14565000  1.0
  H  H14  1  0.04075000  0.47060000  0.64563000  1.0
  H  H15  1  0.53471000  0.52239000  0.35919000  1.0
  H  H16  1  0.97483000  0.69426000  0.49495000  1.0
  H  H17  1  0.52313000  0.29150000  0.49714000  1.0
  H  H18  1  0.02314000  0.20849000  0.99714000  1.0
  H  H19  1  0.47482000  0.80574000  0.99496000  1.0
  H  H20  1  0.86141000  0.73894000  0.61243000  1.0
  H  H21  1  0.40529000  0.23068000  0.39389000  1.0
  H  H22  1  0.90529000  0.26932000  0.89389000  1.0
  H  H23  1  0.36141000  0.76104000  0.11243000  1.0
  C  C24  1  0.20323000  0.56243000  0.82907000  1.0
  C  C25  1  0.69829000  0.44824000  0.17301000  1.0
  C  C26  1  0.19828000  0.05176000  0.67302000  1.0
  C  C27  1  0.70324000  0.93757000  0.32908000  1.0
  C  C28  1  0.10469000  0.66757000  0.89589000  1.0
  C  C29  1  0.60382000  0.34082000  0.10715000  1.0
  C  C30  1  0.10381000  0.15918000  0.60715000  1.0
  C  C31  1  0.60471000  0.83242000  0.39590000  1.0
  C  C32  1  0.00749000  0.65061000  0.00303000  1.0
  C  C33  1  0.51702000  0.35487000  0.99979000  1.0
  C  C34  1  0.01701000  0.14513000  0.49979000  1.0
  C  C35  1  0.50751000  0.84940000  0.50304000  1.0
  C  C36  1  0.92677000  0.86546000  0.00574000  1.0
  C  C37  1  0.45080000  0.13750000  0.99650000  1.0
  C  C38  1  0.95081000  0.36249000  0.49650000  1.0
  C  C39  1  0.42678000  0.63455000  0.50575000  1.0
  C  C40  1  0.02708000  0.88274000  0.89812000  1.0
  C  C41  1  0.53577000  0.12365000  0.10506000  1.0
  C  C42  1  0.03577000  0.37635000  0.60505000  1.0
  C  C43  1  0.52708000  0.61726000  0.39813000  1.0
  N  N44  1  0.11682000  0.78412000  0.84258000  1.0
  N  N45  1  0.61235000  0.22465000  0.15955000  1.0
  N  N46  1  0.11234000  0.27535000  0.65954000  1.0
  N  N47  1  0.61682000  0.71588000  0.34259000  1.0
  N  N48  1  0.91589000  0.74991000  0.05791000  1.0
  N  N49  1  0.43954000  0.25286000  0.94504000  1.0
  N  N50  1  0.93954000  0.24713000  0.44504000  1.0
  N  N51  1  0.41589000  0.75010000  0.55792000  1.0
  Cl  Cl52  1  0.59154000  0.82381000  0.80678000  1.0
  Cl  Cl53  1  0.06124000  0.17573000  0.18076000  1.0
  Cl  Cl54  1  0.56123000  0.32427000  0.68076000  1.0
  Cl  Cl55  1  0.09155000  0.67619000  0.30677000  1.0
  O  O56  1  0.29517000  0.59778000  0.73456000  1.0
  O  O57  1  0.79750000  0.41707000  0.25995000  1.0
  O  O58  1  0.29750000  0.08293000  0.75995000  1.0
  O  O59  1  0.79517000  0.90223000  0.23456000  1.0
  O  O60  1  0.18791000  0.44865000  0.86652000  1.0
  O  O61  1  0.66988000  0.56262000  0.13640000  1.0
  O  O62  1  0.16987000  0.93738000  0.63641000  1.0
  O  O63  1  0.68791000  0.05135000  0.36652000  1.0
  O  O64  1  0.93019000  0.66691000  0.57439000  1.0
  O  O65  1  0.50948000  0.29239000  0.41045000  1.0
  O  O66  1  0.00949000  0.20761000  0.91045000  1.0
  O  O67  1  0.43019000  0.83308000  0.07440000  1.0
