# generated using pymatgen
data_ZnH8C11N2O5
_symmetry_space_group_name_H-M   'P 1'
_cell_length_a   7.70221000
_cell_length_b   8.47879000
_cell_length_c   9.64533000
_cell_angle_alpha   114.72300000
_cell_angle_beta   91.47540000
_cell_angle_gamma   106.25800000
_symmetry_Int_Tables_number   1
_chemical_formula_structural   ZnH8C11N2O5
_chemical_formula_sum   'Zn2 H16 C22 N4 O10'
_cell_volume   541.85767538
_cell_formula_units_Z   2
loop_
 _symmetry_equiv_pos_site_id
 _symmetry_equiv_pos_as_xyz
  1  'x, y, z'
loop_
 _atom_site_type_symbol
 _atom_site_label
 _atom_site_symmetry_multiplicity
 _atom_site_fract_x
 _atom_site_fract_y
 _atom_site_fract_z
 _atom_site_occupancy
  Zn  Zn0  1  0.25278000  0.89180000  0.70311000  1.0
  Zn  Zn1  1  0.74722000  0.10821000  0.29690000  1.0
  H  H2  1  0.32436000  0.58549000  0.61693000  1.0
  H  H3  1  0.67562000  0.41451000  0.38308000  1.0
  H  H4  1  0.51189000  0.76406000  0.72048000  1.0
  H  H5  1  0.48811000  0.23594000  0.27952000  1.0
  H  H6  1  0.89923000  0.66629000  0.85131000  1.0
  H  H7  1  0.10076000  0.33372000  0.14869000  1.0
  H  H8  1  0.17290000  0.94649000  0.32099000  1.0
  H  H9  1  0.82709000  0.05350000  0.67901000  1.0
  H  H10  1  0.70490000  0.46403000  0.18138000  1.0
  H  H11  1  0.29511000  0.53596000  0.81862000  1.0
  H  H12  1  0.68350000  0.47727000  0.69101000  1.0
  H  H13  1  0.31651000  0.52273000  0.30898000  1.0
  H  H14  1  0.41419000  0.14470000  0.53102000  1.0
  H  H15  1  0.58583000  0.85530000  0.46897000  1.0
  H  H16  1  0.52017000  0.22844000  0.99141000  1.0
  H  H17  1  0.47982000  0.77157000  0.00858000  1.0
  C  C18  1  0.78187000  0.54974000  0.00242000  1.0
  C  C19  1  0.21814000  0.45025000  0.99758000  1.0
  C  C20  1  0.90597000  0.67641000  0.96733000  1.0
  C  C21  1  0.09404000  0.32359000  0.03267000  1.0
  C  C22  1  0.04793000  0.81962000  0.08121000  1.0
  C  C23  1  0.95207000  0.18040000  0.91880000  1.0
  C  C24  1  0.06327000  0.83582000  0.23134000  1.0
  C  C25  1  0.93672000  0.16418000  0.76866000  1.0
  C  C26  1  0.93892000  0.70674000  0.26660000  1.0
  C  C27  1  0.06108000  0.29326000  0.73340000  1.0
  C  C28  1  0.79830000  0.56346000  0.15184000  1.0
  C  C29  1  0.20170000  0.43654000  0.84816000  1.0
  C  C30  1  0.18485000  0.94208000  0.02939000  1.0
  C  C31  1  0.81514000  0.05793000  0.97061000  1.0
  C  C32  1  0.95998000  0.71706000  0.42636000  1.0
  C  C33  1  0.04002000  0.28294000  0.57364000  1.0
  C  C34  1  0.61095000  0.37850000  0.73019000  1.0
  C  C35  1  0.38905000  0.62150000  0.26980000  1.0
  C  C36  1  0.47845000  0.21196000  0.65090000  1.0
  C  C37  1  0.52156000  0.78804000  0.34910000  1.0
  C  C38  1  0.53082000  0.25152000  0.88899000  1.0
  C  C39  1  0.46920000  0.74848000  0.11100000  1.0
  N  N40  1  0.43078000  0.13482000  0.75090000  1.0
  N  N41  1  0.56922000  0.86519000  0.24911000  1.0
  N  N42  1  0.64364000  0.40233000  0.88157000  1.0
  N  N43  1  0.35637000  0.59766000  0.11843000  1.0
  O  O44  1  0.15579000  0.88190000  0.88124000  1.0
  O  O45  1  0.84419000  0.11811000  0.11876000  1.0
  O  O46  1  0.31063000  0.08210000  0.12217000  1.0
  O  O47  1  0.68936000  0.91789000  0.87784000  1.0
  O  O48  1  0.10593000  0.84303000  0.51638000  1.0
  O  O49  1  0.89407000  0.15696000  0.48362000  1.0
  O  O50  1  0.84381000  0.61000000  0.46286000  1.0
  O  O51  1  0.15619000  0.38999000  0.53714000  1.0
  O  O52  1  0.39982000  0.71547000  0.64318000  1.0
  O  O53  1  0.60018000  0.28452000  0.35683000  1.0
