# generated using pymatgen
data_Zn4H36C66O13
_symmetry_space_group_name_H-M   'P 1'
_cell_length_a   20.57730000
_cell_length_b   20.57730000
_cell_length_c   29.42710000
_cell_angle_alpha   69.53370000
_cell_angle_beta   69.53380000
_cell_angle_gamma   59.99960000
_symmetry_Int_Tables_number   1
_chemical_formula_structural   Zn4H36C66O13
_chemical_formula_sum   'Zn16 H144 C264 O52'
_cell_volume   9872.17632754
_cell_formula_units_Z   4
loop_
 _symmetry_equiv_pos_site_id
 _symmetry_equiv_pos_as_xyz
  1  'x, y, z'
loop_
 _atom_site_type_symbol
 _atom_site_label
 _atom_site_symmetry_multiplicity
 _atom_site_fract_x
 _atom_site_fract_y
 _atom_site_fract_z
 _atom_site_occupancy
  Zn  Zn0  1  0.50297000  0.37264000  0.79653000  1.0
  Zn  Zn1  1  0.37266000  0.32790000  0.79653000  1.0
  Zn  Zn2  1  0.32790000  0.50302000  0.79651000  1.0
  Zn  Zn3  1  0.17210000  0.12734000  0.70347000  1.0
  Zn  Zn4  1  0.99698000  0.17210000  0.70349000  1.0
  Zn  Zn5  1  0.12736000  0.99702000  0.70347000  1.0
  Zn  Zn6  1  0.49703000  0.62736000  0.20347000  1.0
  Zn  Zn7  1  0.62734000  0.67210000  0.20347000  1.0
  Zn  Zn8  1  0.67210000  0.49698000  0.20349000  1.0
  Zn  Zn9  1  0.82790000  0.87266000  0.29653000  1.0
  Zn  Zn10  1  0.00302000  0.82790000  0.29651000  1.0
  Zn  Zn11  1  0.87264000  0.00298000  0.29653000  1.0
  Zn  Zn12  1  0.43252000  0.43256000  0.70227000  1.0
  Zn  Zn13  1  0.06744000  0.06748000  0.79773000  1.0
  Zn  Zn14  1  0.56748000  0.56744000  0.29773000  1.0
  Zn  Zn15  1  0.93256000  0.93252000  0.20227000  1.0
  H  H16  1  0.62522000  0.16975000  0.88506000  1.0
  H  H17  1  0.16979000  0.31989000  0.88513000  1.0
  H  H18  1  0.32002000  0.62513000  0.88509000  1.0
  H  H19  1  0.18012000  0.33021000  0.61487000  1.0
  H  H20  1  0.87487000  0.17997000  0.61491000  1.0
  H  H21  1  0.33025000  0.87478000  0.61494000  1.0
  H  H22  1  0.37478000  0.83025000  0.11494000  1.0
  H  H23  1  0.83021000  0.68011000  0.11487000  1.0
  H  H24  1  0.67997000  0.37487000  0.11491000  1.0
  H  H25  1  0.81988000  0.66979000  0.38513000  1.0
  H  H26  1  0.12513000  0.82003000  0.38509000  1.0
  H  H27  1  0.66975000  0.12522000  0.38506000  1.0
  H  H28  1  0.68386000  0.04650000  0.94223000  1.0
  H  H29  1  0.04649000  0.32740000  0.94226000  1.0
  H  H30  1  0.32746000  0.68387000  0.94220000  1.0
  H  H31  1  0.17260000  0.45351000  0.55774000  1.0
  H  H32  1  0.81613000  0.17254000  0.55780000  1.0
  H  H33  1  0.45350000  0.81614000  0.55777000  1.0
  H  H34  1  0.31614000  0.95350000  0.05777000  1.0
  H  H35  1  0.95351000  0.67260000  0.05774000  1.0
  H  H36  1  0.67254000  0.31613000  0.05780000  1.0
  H  H37  1  0.82740000  0.54649000  0.44226000  1.0
  H  H38  1  0.18387000  0.82746000  0.44220000  1.0
  H  H39  1  0.54650000  0.18386000  0.44223000  1.0
  H  H40  1  0.51284000  0.98229000  0.94376000  1.0
  H  H41  1  0.98233000  0.56109000  0.94376000  1.0
  H  H42  1  0.56119000  0.51290000  0.94373000  1.0
  H  H43  1  0.93891000  0.51767000  0.55624000  1.0
  H  H44  1  0.98710000  0.93881000  0.55627000  1.0
  H  H45  1  0.51771000  0.98716000  0.55624000  1.0
  H  H46  1  0.48716000  0.01771000  0.05624000  1.0
  H  H47  1  0.01767000  0.43891000  0.05624000  1.0
  H  H48  1  0.43881000  0.48710000  0.05627000  1.0
  H  H49  1  0.06109000  0.48233000  0.44376000  1.0
  H  H50  1  0.01290000  0.06119000  0.44373000  1.0
  H  H51  1  0.48229000  0.01284000  0.44376000  1.0
  H  H52  1  0.45584000  0.10519000  0.88544000  1.0
  H  H53  1  0.10521000  0.55350000  0.88544000  1.0
  H  H54  1  0.55365000  0.45583000  0.88544000  1.0
  H  H55  1  0.94650000  0.39479000  0.61456000  1.0
  H  H56  1  0.04418000  0.94635000  0.61456000  1.0
  H  H57  1  0.39481000  0.04416000  0.61456000  1.0
  H  H58  1  0.54416000  0.89481000  0.11456000  1.0
  H  H59  1  0.89480000  0.44650000  0.11456000  1.0
  H  H60  1  0.44635000  0.54418000  0.11456000  1.0
  H  H61  1  0.05350000  0.60521000  0.38544000  1.0
  H  H62  1  0.95582000  0.05365000  0.38544000  1.0
  H  H63  1  0.60519000  0.95584000  0.38544000  1.0
  H  H64  1  0.60913000  0.86459000  0.95822000  1.0
  H  H65  1  0.86459000  0.56808000  0.95825000  1.0
  H  H66  1  0.56818000  0.60913000  0.95823000  1.0
  H  H67  1  0.93192000  0.63541000  0.54175000  1.0
  H  H68  1  0.89087000  0.93182000  0.54177000  1.0
  H  H69  1  0.63541000  0.89087000  0.54178000  1.0
  H  H70  1  0.39087000  0.13541000  0.04178000  1.0
  H  H71  1  0.13541000  0.43192000  0.04175000  1.0
  H  H72  1  0.43182000  0.39087000  0.04177000  1.0
  H  H73  1  0.06808000  0.36459000  0.45825000  1.0
  H  H74  1  0.10913000  0.06818000  0.45823000  1.0
  H  H75  1  0.36459000  0.10913000  0.45822000  1.0
  H  H76  1  0.71726000  0.74679000  0.08332000  1.0
  H  H77  1  0.74677000  0.45261000  0.08329000  1.0
  H  H78  1  0.45262000  0.71724000  0.08334000  1.0
  H  H79  1  0.04739000  0.75323000  0.41671000  1.0
  H  H80  1  0.78277000  0.04738000  0.41666000  1.0
  H  H81  1  0.75321000  0.78274000  0.41668000  1.0
  H  H82  1  0.28274000  0.25321000  0.91668000  1.0
  H  H83  1  0.25323000  0.54739000  0.91671000  1.0
  H  H84  1  0.54738000  0.28276000  0.91666000  1.0
  H  H85  1  0.95261000  0.24677000  0.58329000  1.0
  H  H86  1  0.21723000  0.95262000  0.58334000  1.0
  H  H87  1  0.24679000  0.21726000  0.58332000  1.0
  H  H88  1  0.66596000  0.98575000  0.02041000  1.0
  H  H89  1  0.98574000  0.32784000  0.02039000  1.0
  H  H90  1  0.32792000  0.66614000  0.02026000  1.0
  H  H91  1  0.17216000  0.51426000  0.47961000  1.0
  H  H92  1  0.83386000  0.17208000  0.47974000  1.0
  H  H93  1  0.51425000  0.83404000  0.47958000  1.0
  H  H94  1  0.33404000  0.01425000  0.97959000  1.0
  H  H95  1  0.01426000  0.67216000  0.97961000  1.0
  H  H96  1  0.67208000  0.33386000  0.97974000  1.0
  H  H97  1  0.82784000  0.48575000  0.52039000  1.0
  H  H98  1  0.16614000  0.82792000  0.52026000  1.0
  H  H99  1  0.48575000  0.16596000  0.52042000  1.0
  H  H100  1  0.78309000  0.94060000  0.03825000  1.0
  H  H101  1  0.94051000  0.23802000  0.03824000  1.0
  H  H102  1  0.23804000  0.78320000  0.03813000  1.0
  H  H103  1  0.26198000  0.55949000  0.46176000  1.0
  H  H104  1  0.71680000  0.26196000  0.46187000  1.0
  H  H105  1  0.55941000  0.71691000  0.46175000  1.0
  H  H106  1  0.21691000  0.05940000  0.96175000  1.0
  H  H107  1  0.05949000  0.76198000  0.96176000  1.0
  H  H108  1  0.76196000  0.21680000  0.96186000  1.0
  H  H109  1  0.73801000  0.44051000  0.53824000  1.0
  H  H110  1  0.28320000  0.73804000  0.53813000  1.0
  H  H111  1  0.44059000  0.28309000  0.53825000  1.0
  H  H112  1  0.83724000  0.94680000  0.09912000  1.0
  H  H113  1  0.94680000  0.11678000  0.09913000  1.0
  H  H114  1  0.11682000  0.83723000  0.09905000  1.0
  H  H115  1  0.38322000  0.55320000  0.40087000  1.0
  H  H116  1  0.66277000  0.38318000  0.40095000  1.0
  H  H117  1  0.55320000  0.66276000  0.40088000  1.0
  H  H118  1  0.16276000  0.05320000  0.90088000  1.0
  H  H119  1  0.05320000  0.88322000  0.90087000  1.0
  H  H120  1  0.88318000  0.16277000  0.90095000  1.0
  H  H121  1  0.61678000  0.44680000  0.59913000  1.0
  H  H122  1  0.33723000  0.61682000  0.59905000  1.0
  H  H123  1  0.44680000  0.33724000  0.59912000  1.0
  H  H124  1  0.73831000  0.80388000  0.21439000  1.0
  H  H125  1  0.80389000  0.24334000  0.21439000  1.0
  H  H126  1  0.24341000  0.73840000  0.21427000  1.0
  H  H127  1  0.25667000  0.69611000  0.28561000  1.0
  H  H128  1  0.76160000  0.25658000  0.28573000  1.0
  H  H129  1  0.69612000  0.76169000  0.28561000  1.0
  H  H130  1  0.26169000  0.19612000  0.78561000  1.0
  H  H131  1  0.19611000  0.75666000  0.78561000  1.0
  H  H132  1  0.75658000  0.26160000  0.78572000  1.0
  H  H133  1  0.74333000  0.30389000  0.71439000  1.0
  H  H134  1  0.23840000  0.74342000  0.71428000  1.0
  H  H135  1  0.30388000  0.23831000  0.71439000  1.0
  H  H136  1  0.68485000  0.79643000  0.15387000  1.0
  H  H137  1  0.79644000  0.36478000  0.15388000  1.0
  H  H138  1  0.36482000  0.68495000  0.15376000  1.0
  H  H139  1  0.13522000  0.70355000  0.34612000  1.0
  H  H140  1  0.81505000  0.13518000  0.34624000  1.0
  H  H141  1  0.70357000  0.81515000  0.34613000  1.0
  H  H142  1  0.31515000  0.20357000  0.84613000  1.0
  H  H143  1  0.20356000  0.63522000  0.84612000  1.0
  H  H144  1  0.63518000  0.31505000  0.84624000  1.0
  H  H145  1  0.86478000  0.29645000  0.65388000  1.0
  H  H146  1  0.18495000  0.86482000  0.65376000  1.0
  H  H147  1  0.29643000  0.18485000  0.65387000  1.0
  H  H148  1  0.78155000  0.65683000  0.02180000  1.0
  H  H149  1  0.65679000  0.53987000  0.02184000  1.0
  H  H150  1  0.53983000  0.78155000  0.02184000  1.0
  H  H151  1  0.96013000  0.84321000  0.47816000  1.0
  H  H152  1  0.71845000  0.96017000  0.47816000  1.0
  H  H153  1  0.84317000  0.71845000  0.47820000  1.0
  H  H154  1  0.21845000  0.34317000  0.97820000  1.0
  H  H155  1  0.34321000  0.46013000  0.97816000  1.0
  H  H156  1  0.46017000  0.21845000  0.97816000  1.0
  H  H157  1  0.03987000  0.15679000  0.52184000  1.0
  H  H158  1  0.28155000  0.03983000  0.52184000  1.0
  H  H159  1  0.15683000  0.28155000  0.52180000  1.0
  C  C160  1  0.49874000  0.22207000  0.84975000  1.0
  C  C161  1  0.22211000  0.42940000  0.84978000  1.0
  C  C162  1  0.42951000  0.49875000  0.84974000  1.0
  C  C163  1  0.07060000  0.27789000  0.65022000  1.0
  C  C164  1  0.00126000  0.07049000  0.65026000  1.0
  C  C165  1  0.27793000  0.00125000  0.65025000  1.0
  C  C166  1  0.50126000  0.77793000  0.15025000  1.0
  C  C167  1  0.77789000  0.57060000  0.15022000  1.0
  C  C168  1  0.57049000  0.50125000  0.15026000  1.0
  C  C169  1  0.92940000  0.72211000  0.34978000  1.0
  C  C170  1  0.99875000  0.92951000  0.34974000  1.0
  C  C171  1  0.72207000  0.99875000  0.34975000  1.0
  C  C172  1  0.53577000  0.14609000  0.88225000  1.0
  C  C173  1  0.14612000  0.43584000  0.88228000  1.0
  C  C174  1  0.43600000  0.53576000  0.88224000  1.0
  C  C175  1  0.06416000  0.35388000  0.61772000  1.0
  C  C176  1  0.96424000  0.06400000  0.61776000  1.0
  C  C177  1  0.35392000  0.96423000  0.61775000  1.0
  C  C178  1  0.46423000  0.85391000  0.11775000  1.0
  C  C179  1  0.85388000  0.56416000  0.11772000  1.0
  C  C180  1  0.56400000  0.46424000  0.11776000  1.0
  C  C181  1  0.93584000  0.64612000  0.38228000  1.0
  C  C182  1  0.03576000  0.93600000  0.38224000  1.0
  C  C183  1  0.64608000  0.03577000  0.38225000  1.0
  C  C184  1  0.60042000  0.12872000  0.89840000  1.0
  C  C185  1  0.12876000  0.37241000  0.89845000  1.0
  C  C186  1  0.37254000  0.60038000  0.89839000  1.0
  C  C187  1  0.12760000  0.37124000  0.60155000  1.0
  C  C188  1  0.89962000  0.12745000  0.60160000  1.0
  C  C189  1  0.37128000  0.89958000  0.60160000  1.0
  C  C190  1  0.39958000  0.87128000  0.10160000  1.0
  C  C191  1  0.87124000  0.62759000  0.10155000  1.0
  C  C192  1  0.62745000  0.39962000  0.10160000  1.0
  C  C193  1  0.87240000  0.62876000  0.39845000  1.0
  C  C194  1  0.10038000  0.87255000  0.39840000  1.0
  C  C195  1  0.62872000  0.10042000  0.39840000  1.0
  C  C196  1  0.63295000  0.05948000  0.93071000  1.0
  C  C197  1  0.05949000  0.37684000  0.93075000  1.0
  C  C198  1  0.37694000  0.63297000  0.93068000  1.0
  C  C199  1  0.12316000  0.44051000  0.56925000  1.0
  C  C200  1  0.86703000  0.12306000  0.56932000  1.0
  C  C201  1  0.44052000  0.86706000  0.56929000  1.0
  C  C202  1  0.36706000  0.94052000  0.06929000  1.0
  C  C203  1  0.94051000  0.62316000  0.06925000  1.0
  C  C204  1  0.62306000  0.36703000  0.06932000  1.0
  C  C205  1  0.87684000  0.55949000  0.43075000  1.0
  C  C206  1  0.13297000  0.87694000  0.43068000  1.0
  C  C207  1  0.55948000  0.13294000  0.43071000  1.0
  C  C208  1  0.60198000  0.00547000  0.94803000  1.0
  C  C209  1  0.00546000  0.44451000  0.94803000  1.0
  C  C210  1  0.44462000  0.60206000  0.94795000  1.0
  C  C211  1  0.05549000  0.49453000  0.55197000  1.0
  C  C212  1  0.89794000  0.05537000  0.55205000  1.0
  C  C213  1  0.49453000  0.89802000  0.55197000  1.0
  C  C214  1  0.39802000  0.99453000  0.05197000  1.0
  C  C215  1  0.99453000  0.55549000  0.05197000  1.0
  C  C216  1  0.55538000  0.39794000  0.05205000  1.0
  C  C217  1  0.94451000  0.50547000  0.44803000  1.0
  C  C218  1  0.10206000  0.94462000  0.44795000  1.0
  C  C219  1  0.50547000  0.10198000  0.44803000  1.0
  C  C220  1  0.53857000  0.02259000  0.93045000  1.0
  C  C221  1  0.02262000  0.50836000  0.93047000  1.0
  C  C222  1  0.50849000  0.53861000  0.93041000  1.0
  C  C223  1  0.99164000  0.47738000  0.56953000  1.0
  C  C224  1  0.96139000  0.99151000  0.56959000  1.0
  C  C225  1  0.47741000  0.96143000  0.56955000  1.0
  C  C226  1  0.46143000  0.97741000  0.06955000  1.0
  C  C227  1  0.97738000  0.49164000  0.06953000  1.0
  C  C228  1  0.49151000  0.46139000  0.06959000  1.0
  C  C229  1  0.00836000  0.52262000  0.43047000  1.0
  C  C230  1  0.03861000  0.00849000  0.43041000  1.0
  C  C231  1  0.52259000  0.03857000  0.43045000  1.0
  C  C232  1  0.50592000  0.09179000  0.89799000  1.0
  C  C233  1  0.09182000  0.50426000  0.89800000  1.0
  C  C234  1  0.50443000  0.50592000  0.89796000  1.0
  C  C235  1  0.99574000  0.40818000  0.60200000  1.0
  C  C236  1  0.99408000  0.99557000  0.60204000  1.0
  C  C237  1  0.40821000  0.99408000  0.60201000  1.0
  C  C238  1  0.49409000  0.90821000  0.10201000  1.0
  C  C239  1  0.90818000  0.49573000  0.10201000  1.0
  C  C240  1  0.49557000  0.49408000  0.10204000  1.0
  C  C241  1  0.00426000  0.59182000  0.39799000  1.0
  C  C242  1  0.00592000  0.00443000  0.39796000  1.0
  C  C243  1  0.59179000  0.00592000  0.39799000  1.0
  C  C244  1  0.63452000  0.93370000  0.98443000  1.0
  C  C245  1  0.93367000  0.44736000  0.98443000  1.0
  C  C246  1  0.44746000  0.63459000  0.98435000  1.0
  C  C247  1  0.05264000  0.56633000  0.51557000  1.0
  C  C248  1  0.86541000  0.05253000  0.51565000  1.0
  C  C249  1  0.56630000  0.86548000  0.51557000  1.0
  C  C250  1  0.36548000  0.06630000  0.01557000  1.0
  C  C251  1  0.06633000  0.55264000  0.01557000  1.0
  C  C252  1  0.55254000  0.36541000  0.01565000  1.0
  C  C253  1  0.94736000  0.43367000  0.48443000  1.0
  C  C254  1  0.13458000  0.94747000  0.48435000  1.0
  C  C255  1  0.43370000  0.13452000  0.48443000  1.0
  C  C256  1  0.63243000  0.86589000  0.98580000  1.0
  C  C257  1  0.86587000  0.51590000  0.98582000  1.0
  C  C258  1  0.51598000  0.63245000  0.98578000  1.0
  C  C259  1  0.98410000  0.63413000  0.51418000  1.0
  C  C260  1  0.86755000  0.98402000  0.51422000  1.0
  C  C261  1  0.63411000  0.86757000  0.51420000  1.0
  C  C262  1  0.36757000  0.13411000  0.01420000  1.0
  C  C263  1  0.13413000  0.48410000  0.01418000  1.0
  C  C264  1  0.48402000  0.36755000  0.01422000  1.0
  C  C265  1  0.01590000  0.36587000  0.48581000  1.0
  C  C266  1  0.13245000  0.01598000  0.48578000  1.0
  C  C267  1  0.36589000  0.13243000  0.48580000  1.0
  C  C268  1  0.66253000  0.79853000  0.02098000  1.0
  C  C269  1  0.79850000  0.51797000  0.02100000  1.0
  C  C270  1  0.51801000  0.66254000  0.02099000  1.0
  C  C271  1  0.98203000  0.70150000  0.47900000  1.0
  C  C272  1  0.83746000  0.98199000  0.47901000  1.0
  C  C273  1  0.70147000  0.83747000  0.47902000  1.0
  C  C274  1  0.33747000  0.20147000  0.97902000  1.0
  C  C275  1  0.20150000  0.48203000  0.97900000  1.0
  C  C276  1  0.48199000  0.33746000  0.97901000  1.0
  C  C277  1  0.01797000  0.29850000  0.52100000  1.0
  C  C278  1  0.16254000  0.01801000  0.52099000  1.0
  C  C279  1  0.29853000  0.16253000  0.52098000  1.0
  C  C280  1  0.69480000  0.79901000  0.05557000  1.0
  C  C281  1  0.79900000  0.45060000  0.05555000  1.0
  C  C282  1  0.45064000  0.69480000  0.05556000  1.0
  C  C283  1  0.04940000  0.70100000  0.44445000  1.0
  C  C284  1  0.80520000  0.04936000  0.44444000  1.0
  C  C285  1  0.70099000  0.80520000  0.44443000  1.0
  C  C286  1  0.30520000  0.20099000  0.94443000  1.0
  C  C287  1  0.20100000  0.54940000  0.94445000  1.0
  C  C288  1  0.54936000  0.30520000  0.94444000  1.0
  C  C289  1  0.95060000  0.29900000  0.55555000  1.0
  C  C290  1  0.19480000  0.95064000  0.55556000  1.0
  C  C291  1  0.29901000  0.19480000  0.55557000  1.0
  C  C292  1  0.69725000  0.86609000  0.05515000  1.0
  C  C293  1  0.86606000  0.38146000  0.05513000  1.0
  C  C294  1  0.38151000  0.69736000  0.05506000  1.0
  C  C295  1  0.11854000  0.63393000  0.44487000  1.0
  C  C296  1  0.80265000  0.11848000  0.44494000  1.0
  C  C297  1  0.63391000  0.80275000  0.44485000  1.0
  C  C298  1  0.30275000  0.13391000  0.94485000  1.0
  C  C299  1  0.13393000  0.61854000  0.94487000  1.0
  C  C300  1  0.61849000  0.30264000  0.94494000  1.0
  C  C301  1  0.88146000  0.36607000  0.55513000  1.0
  C  C302  1  0.19735000  0.88152000  0.55506000  1.0
  C  C303  1  0.36609000  0.19725000  0.55515000  1.0
  C  C304  1  0.66710000  0.93268000  0.01945000  1.0
  C  C305  1  0.93266000  0.38074000  0.01943000  1.0
  C  C306  1  0.38082000  0.66725000  0.01931000  1.0
  C  C307  1  0.11926000  0.56733000  0.48057000  1.0
  C  C308  1  0.83275000  0.11917000  0.48069000  1.0
  C  C309  1  0.56732000  0.83290000  0.48055000  1.0
  C  C310  1  0.33291000  0.06732000  0.98055000  1.0
  C  C311  1  0.06733000  0.61926000  0.98057000  1.0
  C  C312  1  0.61918000  0.33275000  0.98069000  1.0
  C  C313  1  0.88074000  0.43267000  0.51943000  1.0
  C  C314  1  0.16725000  0.88083000  0.51931000  1.0
  C  C315  1  0.43268000  0.16710000  0.51945000  1.0
  C  C316  1  0.72997000  0.86814000  0.09171000  1.0
  C  C317  1  0.86808000  0.31012000  0.09171000  1.0
  C  C318  1  0.31015000  0.73009000  0.09160000  1.0
  C  C319  1  0.18988000  0.63192000  0.40829000  1.0
  C  C320  1  0.76992000  0.18985000  0.40840000  1.0
  C  C321  1  0.63186000  0.77003000  0.40829000  1.0
  C  C322  1  0.27003000  0.13186000  0.90829000  1.0
  C  C323  1  0.13192000  0.68988000  0.90829000  1.0
  C  C324  1  0.68985000  0.26992000  0.90840000  1.0
  C  C325  1  0.81012000  0.36808000  0.59171000  1.0
  C  C326  1  0.23008000  0.81015000  0.59160000  1.0
  C  C327  1  0.36814000  0.22997000  0.59171000  1.0
  C  C328  1  0.77285000  0.91084000  0.07694000  1.0
  C  C329  1  0.91079000  0.23930000  0.07694000  1.0
  C  C330  1  0.23934000  0.77292000  0.07683000  1.0
  C  C331  1  0.26070000  0.58921000  0.42306000  1.0
  C  C332  1  0.72709000  0.26066000  0.42317000  1.0
  C  C333  1  0.58916000  0.72715000  0.42306000  1.0
  C  C334  1  0.22715000  0.08916000  0.92306000  1.0
  C  C335  1  0.08921000  0.76070000  0.92306000  1.0
  C  C336  1  0.76066000  0.22708000  0.92317000  1.0
  C  C337  1  0.73930000  0.41079000  0.57694000  1.0
  C  C338  1  0.27291000  0.73934000  0.57683000  1.0
  C  C339  1  0.41084000  0.27285000  0.57694000  1.0
  C  C340  1  0.80344000  0.91435000  0.11071000  1.0
  C  C341  1  0.91434000  0.17143000  0.11072000  1.0
  C  C342  1  0.17148000  0.80344000  0.11063000  1.0
  C  C343  1  0.32857000  0.58566000  0.38928000  1.0
  C  C344  1  0.69656000  0.32852000  0.38937000  1.0
  C  C345  1  0.58565000  0.69656000  0.38929000  1.0
  C  C346  1  0.19656000  0.08565000  0.88929000  1.0
  C  C347  1  0.08566000  0.82857000  0.88928000  1.0
  C  C348  1  0.82852000  0.19656000  0.88937000  1.0
  C  C349  1  0.67143000  0.41434000  0.61072000  1.0
  C  C350  1  0.30344000  0.67148000  0.61063000  1.0
  C  C351  1  0.41435000  0.30344000  0.61071000  1.0
  C  C352  1  0.79103000  0.87615000  0.16062000  1.0
  C  C353  1  0.87615000  0.17214000  0.16062000  1.0
  C  C354  1  0.17218000  0.79103000  0.16053000  1.0
  C  C355  1  0.32786000  0.62385000  0.33938000  1.0
  C  C356  1  0.70897000  0.32782000  0.33947000  1.0
  C  C357  1  0.62386000  0.70897000  0.33938000  1.0
  C  C358  1  0.20897000  0.12385000  0.83938000  1.0
  C  C359  1  0.12385000  0.82786000  0.83938000  1.0
  C  C360  1  0.82782000  0.20897000  0.83947000  1.0
  C  C361  1  0.67214000  0.37615000  0.66062000  1.0
  C  C362  1  0.29103000  0.67218000  0.66053000  1.0
  C  C363  1  0.37614000  0.29103000  0.66062000  1.0
  C  C364  1  0.74835000  0.83347000  0.17574000  1.0
  C  C365  1  0.83346000  0.24236000  0.17574000  1.0
  C  C366  1  0.24241000  0.74844000  0.17563000  1.0
  C  C367  1  0.25765000  0.66654000  0.32426000  1.0
  C  C368  1  0.75156000  0.25759000  0.32437000  1.0
  C  C369  1  0.66653000  0.75165000  0.32426000  1.0
  C  C370  1  0.25165000  0.16652000  0.82426000  1.0
  C  C371  1  0.16654000  0.75764000  0.82426000  1.0
  C  C372  1  0.75759000  0.25156000  0.82437000  1.0
  C  C373  1  0.74235000  0.33346000  0.67574000  1.0
  C  C374  1  0.24844000  0.74241000  0.67563000  1.0
  C  C375  1  0.33347000  0.24835000  0.67574000  1.0
  C  C376  1  0.71877000  0.82896000  0.14158000  1.0
  C  C377  1  0.82895000  0.31061000  0.14159000  1.0
  C  C378  1  0.31065000  0.71888000  0.14147000  1.0
  C  C379  1  0.18939000  0.67105000  0.35841000  1.0
  C  C380  1  0.78112000  0.18935000  0.35853000  1.0
  C  C381  1  0.67104000  0.78123000  0.35842000  1.0
  C  C382  1  0.28123000  0.17104000  0.85842000  1.0
  C  C383  1  0.17105000  0.68939000  0.85841000  1.0
  C  C384  1  0.68935000  0.28112000  0.85853000  1.0
  C  C385  1  0.81061000  0.32895000  0.64159000  1.0
  C  C386  1  0.21888000  0.81065000  0.64147000  1.0
  C  C387  1  0.32896000  0.21877000  0.64158000  1.0
  C  C388  1  0.66089000  0.72718000  0.02150000  1.0
  C  C389  1  0.72716000  0.59047000  0.02150000  1.0
  C  C390  1  0.59047000  0.66091000  0.02150000  1.0
  C  C391  1  0.90953000  0.77283000  0.47850000  1.0
  C  C392  1  0.83909000  0.90952000  0.47850000  1.0
  C  C393  1  0.77282000  0.83911000  0.47850000  1.0
  C  C394  1  0.33912000  0.27282000  0.97850000  1.0
  C  C395  1  0.27284000  0.40953000  0.97850000  1.0
  C  C396  1  0.40953000  0.33909000  0.97850000  1.0
  C  C397  1  0.09047000  0.22717000  0.52150000  1.0
  C  C398  1  0.16091000  0.09048000  0.52150000  1.0
  C  C399  1  0.22718000  0.16089000  0.52150000  1.0
  C  C400  1  0.72800000  0.65809000  0.02158000  1.0
  C  C401  1  0.65806000  0.59238000  0.02160000  1.0
  C  C402  1  0.59236000  0.72801000  0.02159000  1.0
  C  C403  1  0.90762000  0.84193000  0.47840000  1.0
  C  C404  1  0.77199000  0.90764000  0.47841000  1.0
  C  C405  1  0.84192000  0.77200000  0.47842000  1.0
  C  C406  1  0.27201000  0.34191000  0.97842000  1.0
  C  C407  1  0.34194000  0.40762000  0.97840000  1.0
  C  C408  1  0.40764000  0.27199000  0.97841000  1.0
  C  C409  1  0.09238000  0.15807000  0.52160000  1.0
  C  C410  1  0.22801000  0.09236000  0.52159000  1.0
  C  C411  1  0.15809000  0.22800000  0.52158000  1.0
  C  C412  1  0.82371000  0.88288000  0.19572000  1.0
  C  C413  1  0.88292000  0.09764000  0.19576000  1.0
  C  C414  1  0.09766000  0.82360000  0.19569000  1.0
  C  C415  1  0.40237000  0.61708000  0.30424000  1.0
  C  C416  1  0.67641000  0.40233000  0.30431000  1.0
  C  C417  1  0.61712000  0.67629000  0.30428000  1.0
  C  C418  1  0.17629000  0.11712000  0.80428000  1.0
  C  C419  1  0.11708000  0.90236000  0.80424000  1.0
  C  C420  1  0.90234000  0.17640000  0.80431000  1.0
  C  C421  1  0.59763000  0.38292000  0.69576000  1.0
  C  C422  1  0.32359000  0.59767000  0.69569000  1.0
  C  C423  1  0.38288000  0.32371000  0.69572000  1.0
  O  O424  1  0.52517000  0.27083000  0.84122000  1.0
  O  O425  1  0.27082000  0.36277000  0.84120000  1.0
  O  O426  1  0.36288000  0.52519000  0.84119000  1.0
  O  O427  1  0.13723000  0.22918000  0.65880000  1.0
  O  O428  1  0.97481000  0.13713000  0.65881000  1.0
  O  O429  1  0.22918000  0.97483000  0.65878000  1.0
  O  O430  1  0.47483000  0.72918000  0.15878000  1.0
  O  O431  1  0.72918000  0.63723000  0.15880000  1.0
  O  O432  1  0.63712000  0.47480000  0.15881000  1.0
  O  O433  1  0.86277000  0.77082000  0.34120000  1.0
  O  O434  1  0.02519000  0.86287000  0.34119000  1.0
  O  O435  1  0.77082000  0.02517000  0.34122000  1.0
  O  O436  1  0.80154000  0.86023000  0.24240000  1.0
  O  O437  1  0.86034000  0.09585000  0.24243000  1.0
  O  O438  1  0.09588000  0.80144000  0.24235000  1.0
  O  O439  1  0.40415000  0.63966000  0.25757000  1.0
  O  O440  1  0.69857000  0.40411000  0.25765000  1.0
  O  O441  1  0.63977000  0.69846000  0.25760000  1.0
  O  O442  1  0.19846000  0.13977000  0.75760000  1.0
  O  O443  1  0.13966000  0.90415000  0.75757000  1.0
  O  O444  1  0.90412000  0.19856000  0.75765000  1.0
  O  O445  1  0.59585000  0.36034000  0.74243000  1.0
  O  O446  1  0.30143000  0.59588000  0.74235000  1.0
  O  O447  1  0.36023000  0.30154000  0.74240000  1.0
  O  O448  1  0.40842000  0.40844000  0.77478000  1.0
  O  O449  1  0.09156000  0.09158000  0.72522000  1.0
  O  O450  1  0.59158000  0.59156000  0.22522000  1.0
  O  O451  1  0.90844000  0.90842000  0.27478000  1.0
  O  O452  1  0.44335000  0.23316000  0.83325000  1.0
  O  O453  1  0.23325000  0.49017000  0.83336000  1.0
  O  O454  1  0.49030000  0.44331000  0.83327000  1.0
  O  O455  1  0.00983000  0.26675000  0.66666667  1.0
  O  O456  1  0.05669000  0.00970000  0.66674000  1.0
  O  O457  1  0.26685000  0.05665000  0.66675000  1.0
  O  O458  1  0.55665000  0.76685000  0.16675000  1.0
  O  O459  1  0.76675000  0.50983000  0.16664000  1.0
  O  O460  1  0.50970000  0.55669000  0.16673000  1.0
  O  O461  1  0.99017000  0.73325000  0.33333333  1.0
  O  O462  1  0.94331000  0.99030000  0.33326000  1.0
  O  O463  1  0.73315000  0.94335000  0.33325000  1.0
  O  O464  1  0.87193000  0.91206000  0.17565000  1.0
  O  O465  1  0.91201000  0.04029000  0.17573000  1.0
  O  O466  1  0.04027000  0.87178000  0.17567000  1.0
  O  O467  1  0.45972000  0.58799000  0.32427000  1.0
  O  O468  1  0.62822000  0.45973000  0.32433000  1.0
  O  O469  1  0.58794000  0.62807000  0.32435000  1.0
  O  O470  1  0.12807000  0.08794000  0.82435000  1.0
  O  O471  1  0.08799000  0.95971000  0.82427000  1.0
  O  O472  1  0.95973000  0.12822000  0.82433000  1.0
  O  O473  1  0.54028000  0.41201000  0.67573000  1.0
  O  O474  1  0.37178000  0.54027000  0.67567000  1.0
  O  O475  1  0.41206000  0.37193000  0.67565000  1.0
