# generated using pymatgen
data_ZnH14(C11N3)2
_symmetry_space_group_name_H-M   'P 1'
_cell_length_a   7.39575000
_cell_length_b   8.79617188
_cell_length_c   10.83964935
_cell_angle_alpha   66.23678556
_cell_angle_beta   70.18169422
_cell_angle_gamma   65.18591063
_symmetry_Int_Tables_number   1
_chemical_formula_structural   ZnH14(C11N3)2
_chemical_formula_sum   'Zn1 H14 C22 N6'
_cell_volume   573.40902554
_cell_formula_units_Z   1
loop_
 _symmetry_equiv_pos_site_id
 _symmetry_equiv_pos_as_xyz
  1  'x, y, z'
loop_
 _atom_site_type_symbol
 _atom_site_label
 _atom_site_symmetry_multiplicity
 _atom_site_fract_x
 _atom_site_fract_y
 _atom_site_fract_z
 _atom_site_occupancy
  Zn  Zn0  1  0.99999000  1.00000000  0.00000000  1.0
  H  H1  1  0.37142000  0.23649000  0.02084000  1.0
  H  H2  1  0.62858000  0.76351000  0.97915000  1.0
  H  H3  1  0.06874000  0.63371000  0.22859000  1.0
  H  H4  1  0.93125000  0.36629000  0.77141000  1.0
  H  H5  1  0.81350000  0.36050000  0.59500000  1.0
  H  H6  1  0.77031000  0.63760000  0.40456000  1.0
  H  H7  1  0.18648000  0.63950000  0.40501000  1.0
  H  H8  1  0.22968000  0.36240000  0.59545000  1.0
  H  H9  1  0.20292000  0.79289000  0.80352000  1.0
  H  H10  1  0.79709000  0.20711000  0.19648000  1.0
  H  H11  1  0.36168000  0.48159000  0.79715000  1.0
  H  H12  1  0.63832000  0.51842000  0.20284000  1.0
  H  H13  1  0.22114000  0.31443000  0.24226000  1.0
  H  H14  1  0.77885000  0.68557000  0.75773000  1.0
  C  C15  1  0.30376000  0.37329000  0.01984000  1.0
  C  C16  1  0.69625000  0.62671000  0.98015000  1.0
  C  C17  1  0.71261000  0.10246000  0.79079000  1.0
  C  C18  1  0.60695000  0.89679000  0.20910000  1.0
  C  C19  1  0.28741000  0.89755000  0.20920000  1.0
  C  C20  1  0.39308000  0.10320000  0.79090000  1.0
  C  C21  1  0.54652000  0.17803000  0.72827000  1.0
  C  C22  1  0.45350000  0.82196000  0.27174000  1.0
  C  C23  1  0.52484000  0.33934000  0.61069000  1.0
  C  C24  1  0.47515000  0.66066000  0.38932000  1.0
  C  C25  1  0.13568000  0.59304000  0.13583000  1.0
  C  C26  1  0.86432000  0.40695000  0.86417000  1.0
  C  C27  1  0.67524000  0.42111000  0.55370000  1.0
  C  C28  1  0.65079000  0.57777000  0.44611000  1.0
  C  C29  1  0.32474000  0.57890000  0.44631000  1.0
  C  C30  1  0.34920000  0.42223000  0.55390000  1.0
  C  C31  1  0.21098000  0.68202000  0.89783000  1.0
  C  C32  1  0.78903000  0.31798000  0.10217000  1.0
  C  C33  1  0.29875000  0.50877000  0.89539000  1.0
  C  C34  1  0.70126000  0.49124000  0.10460000  1.0
  C  C35  1  0.22055000  0.41621000  0.14265000  1.0
  C  C36  1  0.77945000  0.58378000  0.85735000  1.0
  N  N37  1  0.85473000  0.04011000  0.84243000  1.0
  N  N38  1  0.73835000  0.95888000  0.15713000  1.0
  N  N39  1  0.14528000  0.95989000  0.15757000  1.0
  N  N40  1  0.26164000  0.04112000  0.84287000  1.0
  N  N41  1  0.13073000  0.72370000  0.01589000  1.0
  N  N42  1  0.86926000  0.27629000  0.98412000  1.0
