# generated using pymatgen
data_ZnH8C5S(NO4)2
_symmetry_space_group_name_H-M   'P 1'
_cell_length_a   7.81049000
_cell_length_b   11.16220000
_cell_length_c   11.16630000
_cell_angle_alpha   94.02360000
_cell_angle_beta   89.99970000
_cell_angle_gamma   89.99980000
_symmetry_Int_Tables_number   1
_chemical_formula_structural   ZnH8C5S(NO4)2
_chemical_formula_sum   'Zn4 H32 C20 S4 N8 O32'
_cell_volume   971.10371626
_cell_formula_units_Z   4
loop_
 _symmetry_equiv_pos_site_id
 _symmetry_equiv_pos_as_xyz
  1  'x, y, z'
loop_
 _atom_site_type_symbol
 _atom_site_label
 _atom_site_symmetry_multiplicity
 _atom_site_fract_x
 _atom_site_fract_y
 _atom_site_fract_z
 _atom_site_occupancy
  Zn  Zn0  1  0.00000000  0.50000000  0.50000000  1.0
  Zn  Zn1  1  0.50000000  0.50000000  0.00000000  1.0
  Zn  Zn2  1  0.49999000  0.00001000  0.50001000  1.0
  Zn  Zn3  1  0.00000000  0.00000000  0.00000000  1.0
  H  H4  1  0.97988000  0.93695000  0.69250000  1.0
  H  H5  1  0.47988000  0.06306000  0.80749000  1.0
  H  H6  1  0.02012000  0.06306000  0.30749000  1.0
  H  H7  1  0.52012000  0.93694000  0.19251000  1.0
  H  H8  1  0.01798000  0.24928000  0.59881000  1.0
  H  H9  1  0.51799000  0.75071000  0.90119000  1.0
  H  H10  1  0.98202000  0.75072000  0.40119000  1.0
  H  H11  1  0.48202000  0.24928000  0.09882000  1.0
  H  H12  1  0.69552000  0.40892000  0.35844000  1.0
  H  H13  1  0.19552000  0.59109000  0.14156000  1.0
  H  H14  1  0.30448000  0.59108000  0.64156000  1.0
  H  H15  1  0.80448000  0.40891000  0.85844000  1.0
  H  H16  1  0.51128000  0.22048000  0.34087000  1.0
  H  H17  1  0.01129000  0.77953000  0.15913000  1.0
  H  H18  1  0.48872000  0.77952000  0.65913000  1.0
  H  H19  1  0.98871000  0.22048000  0.84087000  1.0
  H  H20  1  0.98136000  0.45766000  0.24372000  1.0
  H  H21  1  0.48135000  0.54234000  0.25629000  1.0
  H  H22  1  0.01865000  0.54235000  0.75628000  1.0
  H  H23  1  0.51865000  0.45766000  0.74371000  1.0
  H  H24  1  0.88797000  0.58456000  0.28128000  1.0
  H  H25  1  0.38796000  0.41544000  0.21872000  1.0
  H  H26  1  0.11203000  0.41544000  0.71872000  1.0
  H  H27  1  0.61204000  0.58456000  0.78128000  1.0
  H  H28  1  0.67756000  0.61621000  0.47141000  1.0
  H  H29  1  0.17755000  0.38380000  0.02859000  1.0
  H  H30  1  0.32244000  0.38379000  0.52859000  1.0
  H  H31  1  0.82244000  0.61620000  0.97141000  1.0
  H  H32  1  0.75170000  0.64650000  0.60502000  1.0
  H  H33  1  0.25170000  0.35351000  0.89498000  1.0
  H  H34  1  0.24830000  0.35350000  0.39498000  1.0
  H  H35  1  0.74830000  0.64649000  0.10502000  1.0
  C  C36  1  0.81940000  0.03801000  0.61188000  1.0
  C  C37  1  0.31941000  0.96199000  0.88810000  1.0
  C  C38  1  0.18060000  0.96199000  0.38812000  1.0
  C  C39  1  0.68060000  0.03801000  0.11189000  1.0
  C  C40  1  0.79851000  0.14344000  0.53688000  1.0
  C  C41  1  0.29851000  0.85656000  0.96311000  1.0
  C  C42  1  0.20149000  0.85656000  0.46312000  1.0
  C  C43  1  0.70150000  0.14344000  0.03689000  1.0
  C  C44  1  0.90318000  0.24442000  0.54318000  1.0
  C  C45  1  0.40318000  0.75558000  0.95681000  1.0
  C  C46  1  0.09681000  0.75559000  0.45682000  1.0
  C  C47  1  0.59681000  0.24441000  0.04319000  1.0
  C  C48  1  0.72521000  0.33174000  0.40906000  1.0
  C  C49  1  0.22521000  0.66827000  0.09094000  1.0
  C  C50  1  0.27478000  0.66827000  0.59094000  1.0
  C  C51  1  0.77478000  0.33173000  0.90906000  1.0
  C  C52  1  0.62389000  0.22871000  0.39883000  1.0
  C  C53  1  0.12389000  0.77129000  0.10117000  1.0
  C  C54  1  0.37611000  0.77129000  0.60116000  1.0
  C  C55  1  0.87611000  0.22871000  0.89883000  1.0
  S  S56  1  0.38322000  0.23613000  0.69175000  1.0
  S  S57  1  0.88322000  0.76388000  0.80825000  1.0
  S  S58  1  0.61679000  0.76387000  0.30825000  1.0
  S  S59  1  0.11677000  0.23612000  0.19175000  1.0
  N  N60  1  0.66055000  0.13727000  0.46487000  1.0
  N  N61  1  0.16055000  0.86273000  0.03513000  1.0
  N  N62  1  0.33945000  0.86273000  0.53513000  1.0
  N  N63  1  0.83945000  0.13726000  0.96487000  1.0
  N  N64  1  0.86178000  0.33908000  0.48131000  1.0
  N  N65  1  0.36178000  0.66092000  0.01869000  1.0
  N  N66  1  0.13822000  0.66092000  0.51868000  1.0
  N  N67  1  0.63822000  0.33908000  0.98132000  1.0
  O  O68  1  0.69344000  0.97275000  0.62811000  1.0
  O  O69  1  0.19343000  0.02725000  0.87189000  1.0
  O  O70  1  0.30656000  0.02725000  0.37189000  1.0
  O  O71  1  0.80657000  0.97275000  0.12811000  1.0
  O  O72  1  0.97161000  0.02284000  0.65523000  1.0
  O  O73  1  0.47163000  0.97716000  0.84477000  1.0
  O  O74  1  0.02838000  0.97716000  0.34477000  1.0
  O  O75  1  0.52838000  0.02283000  0.15523000  1.0
  O  O76  1  0.97103000  0.52459000  0.30747000  1.0
  O  O77  1  0.47101000  0.47542000  0.19253000  1.0
  O  O78  1  0.02898000  0.47542000  0.69253000  1.0
  O  O79  1  0.52898000  0.52458000  0.80747000  1.0
  O  O80  1  0.33566000  0.14285000  0.59674000  1.0
  O  O81  1  0.83565000  0.85715000  0.90326000  1.0
  O  O82  1  0.66435000  0.85716000  0.40327000  1.0
  O  O83  1  0.16434000  0.14284000  0.09674000  1.0
  O  O84  1  0.50446000  0.18467000  0.77823000  1.0
  O  O85  1  0.00445000  0.81534000  0.72177000  1.0
  O  O86  1  0.49555000  0.81533000  0.22177000  1.0
  O  O87  1  0.99554000  0.18466000  0.27823000  1.0
  O  O88  1  0.46912000  0.34044000  0.63851000  1.0
  O  O89  1  0.96912000  0.65956000  0.86149000  1.0
  O  O90  1  0.53089000  0.65955000  0.36149000  1.0
  O  O91  1  0.03088000  0.34044000  0.13851000  1.0
  O  O92  1  0.22503000  0.28256000  0.75570000  1.0
  O  O93  1  0.72503000  0.71744000  0.74431000  1.0
  O  O94  1  0.77499000  0.71744000  0.24430000  1.0
  O  O95  1  0.27497000  0.28255000  0.25569000  1.0
  O  O96  1  0.76092000  0.59053000  0.53188000  1.0
  O  O97  1  0.26091000  0.40947000  0.96812000  1.0
  O  O98  1  0.23908000  0.40946000  0.46812000  1.0
  O  O99  1  0.73908000  0.59053000  0.03188000  1.0
