# generated using pymatgen
data_MnH12C6(N5O3)2
_symmetry_space_group_name_H-M   'P 1'
_cell_length_a   6.42184000
_cell_length_b   9.88663000
_cell_length_c   11.80378220
_cell_angle_alpha   98.75686813
_cell_angle_beta   105.75494616
_cell_angle_gamma   108.94600000
_symmetry_Int_Tables_number   1
_chemical_formula_structural   MnH12C6(N5O3)2
_chemical_formula_sum   'Mn2 H24 C12 N20 O12'
_cell_volume   657.97746268
_cell_formula_units_Z   2
loop_
 _symmetry_equiv_pos_site_id
 _symmetry_equiv_pos_as_xyz
  1  'x, y, z'
loop_
 _atom_site_type_symbol
 _atom_site_label
 _atom_site_symmetry_multiplicity
 _atom_site_fract_x
 _atom_site_fract_y
 _atom_site_fract_z
 _atom_site_occupancy
  Mn  Mn0  1  0.00000000  0.00000000  0.00000000  1.0
  Mn  Mn1  1  0.50000000  0.50000000  0.50000000  1.0
  H  H2  1  0.09233000  0.91709000  0.78251000  1.0
  H  H3  1  0.89287000  0.58297000  0.71750000  1.0
  H  H4  1  0.90769000  0.08291000  0.21749000  1.0
  H  H5  1  0.10712000  0.41703000  0.28249000  1.0
  H  H6  1  0.29091000  0.89590000  0.88593000  1.0
  H  H7  1  0.00914000  0.60407000  0.61399000  1.0
  H  H8  1  0.70911000  0.10410000  0.11408000  1.0
  H  H9  1  0.99086000  0.39592000  0.38601000  1.0
  H  H10  1  0.10067000  0.14953000  0.44824000  1.0
  H  H11  1  0.00267000  0.35036000  0.05141000  1.0
  H  H12  1  0.89933000  0.85047000  0.55176000  1.0
  H  H13  1  0.99733000  0.64964000  0.94859000  1.0
  H  H14  1  0.05137000  0.97393000  0.37221000  1.0
  H  H15  1  0.20479000  0.52588000  0.12756000  1.0
  H  H16  1  0.94864000  0.02608000  0.62779000  1.0
  H  H17  1  0.79519000  0.47412000  0.87244000  1.0
  H  H18  1  0.27938000  0.83410000  0.36357000  1.0
  H  H19  1  0.58020000  0.66571000  0.13637000  1.0
  H  H20  1  0.72061000  0.16591000  0.63643000  1.0
  H  H21  1  0.41978000  0.33430000  0.86362000  1.0
  H  H22  1  0.54906000  0.85904000  0.33761000  1.0
  H  H23  1  0.85118000  0.64122000  0.16184000  1.0
  H  H24  1  0.45094000  0.14096000  0.66239000  1.0
  H  H25  1  0.14881000  0.35878000  0.83815000  1.0
  C  C26  1  0.25718000  0.83793000  0.17898000  1.0
  C  C27  1  0.73985000  0.66200000  0.32083000  1.0
  C  C28  1  0.74281000  0.16206000  0.82102000  1.0
  C  C29  1  0.26013000  0.33799000  0.67916000  1.0
  C  C30  1  0.39589000  0.88942000  0.31692000  1.0
  C  C31  1  0.68858000  0.61059000  0.18282000  1.0
  C  C32  1  0.60411000  0.11058000  0.68309000  1.0
  C  C33  1  0.31141000  0.38942000  0.81717000  1.0
  C  C34  1  0.36266000  0.13505000  0.39097000  1.0
  C  C35  1  0.33635000  0.36481000  0.10880000  1.0
  C  C36  1  0.63735000  0.86495000  0.60904000  1.0
  C  C37  1  0.66364000  0.63519000  0.89120000  1.0
  N  N38  1  0.47871000  0.04859000  0.36374000  1.0
  N  N39  1  0.56601000  0.45138000  0.13613000  1.0
  N  N40  1  0.52128000  0.95141000  0.63626000  1.0
  N  N41  1  0.43399000  0.54862000  0.86386000  1.0
  N  N42  1  0.69600000  0.13812000  0.37103000  1.0
  N  N43  1  0.68674000  0.36196000  0.12902000  1.0
  N  N44  1  0.30401000  0.86187000  0.62898000  1.0
  N  N45  1  0.31326000  0.63805000  0.87098000  1.0
  N  N46  1  0.71419000  0.27287000  0.40634000  1.0
  N  N47  1  0.53512000  0.22716000  0.09370000  1.0
  N  N48  1  0.28581000  0.72713000  0.59366000  1.0
  N  N49  1  0.46488000  0.77284000  0.90630000  1.0
  N  N50  1  0.51304000  0.27711000  0.42063000  1.0
  N  N51  1  0.31536000  0.22279000  0.07927000  1.0
  N  N52  1  0.48696000  0.72289000  0.57937000  1.0
  N  N53  1  0.68465000  0.77721000  0.92074000  1.0
  N  N54  1  0.13704000  0.08620000  0.38466000  1.0
  N  N55  1  0.16580000  0.41360000  0.11507000  1.0
  N  N56  1  0.86296000  0.91380000  0.61534000  1.0
  N  N57  1  0.83420000  0.58640000  0.88493000  1.0
  O  O58  1  0.21334000  0.70704000  0.12347000  1.0
  O  O59  1  0.88251000  0.79282000  0.37637000  1.0
  O  O60  1  0.78666000  0.29296000  0.87654000  1.0
  O  O61  1  0.11750000  0.20718000  0.62363000  1.0
  O  O62  1  0.19232000  0.93179000  0.13414000  1.0
  O  O63  1  0.62618000  0.56810000  0.36575000  1.0
  O  O64  1  0.80768000  0.06820000  0.86586000  1.0
  O  O65  1  0.37383000  0.43191000  0.63424000  1.0
  O  O66  1  0.17111000  0.94016000  0.87109000  1.0
  O  O67  1  0.85991000  0.56011000  0.62890000  1.0
  O  O68  1  0.82891000  0.05984000  0.12892000  1.0
  O  O69  1  0.14009000  0.43989000  0.37110000  1.0
