# generated using pymatgen
data_AgH7C5(N3O)2
_symmetry_space_group_name_H-M   'P 1'
_cell_length_a   7.06397000
_cell_length_b   10.07890000
_cell_length_c   11.62200000
_cell_angle_alpha   109.33400000
_cell_angle_beta   89.99980000
_cell_angle_gamma   89.99990000
_symmetry_Int_Tables_number   1
_chemical_formula_structural   AgH7C5(N3O)2
_chemical_formula_sum   'Ag4 H28 C20 N24 O8'
_cell_volume   780.78763661
_cell_formula_units_Z   4
loop_
 _symmetry_equiv_pos_site_id
 _symmetry_equiv_pos_as_xyz
  1  'x, y, z'
loop_
 _atom_site_type_symbol
 _atom_site_label
 _atom_site_symmetry_multiplicity
 _atom_site_fract_x
 _atom_site_fract_y
 _atom_site_fract_z
 _atom_site_occupancy
  Ag  Ag0  1  0.80448000  0.89199000  0.37330000  1.0
  Ag  Ag1  1  0.30448000  0.60801000  0.12670000  1.0
  Ag  Ag2  1  0.19552000  0.10801000  0.62670000  1.0
  Ag  Ag3  1  0.69552000  0.39199000  0.87330000  1.0
  H  H4  1  0.11017000  0.58299000  0.61549000  1.0
  H  H5  1  0.61017000  0.91701000  0.88450000  1.0
  H  H6  1  0.88983000  0.41700000  0.38450000  1.0
  H  H7  1  0.38983000  0.08300000  0.11550000  1.0
  H  H8  1  0.60635000  0.21065000  0.25030000  1.0
  H  H9  1  0.10634000  0.28935000  0.24970000  1.0
  H  H10  1  0.39366000  0.78935000  0.74970000  1.0
  H  H11  1  0.89366000  0.71065000  0.75030000  1.0
  H  H12  1  0.66892000  0.04362000  0.25180000  1.0
  H  H13  1  0.16892000  0.45638000  0.24820000  1.0
  H  H14  1  0.33108000  0.95638000  0.74820000  1.0
  H  H15  1  0.83109000  0.54362000  0.75180000  1.0
  H  H16  1  0.50988000  0.53854000  0.74904000  1.0
  H  H17  1  0.00988000  0.96146000  0.75096000  1.0
  H  H18  1  0.49012000  0.46146000  0.25096000  1.0
  H  H19  1  0.99012000  0.03854000  0.24904000  1.0
  H  H20  1  0.48921000  0.56220000  0.60560000  1.0
  H  H21  1  0.98921000  0.93780000  0.89440000  1.0
  H  H22  1  0.51079000  0.43780000  0.39440000  1.0
  H  H23  1  0.01079000  0.06220000  0.10560000  1.0
  H  H24  1  0.69313000  0.09683000  0.75711000  1.0
  H  H25  1  0.19312000  0.40318000  0.74289000  1.0
  H  H26  1  0.30688000  0.90317000  0.24289000  1.0
  H  H27  1  0.80688000  0.59683000  0.25711000  1.0
  H  H28  1  0.76245000  0.96134000  0.62325000  1.0
  H  H29  1  0.26245000  0.53866000  0.87675000  1.0
  H  H30  1  0.23755000  0.03865000  0.37675000  1.0
  H  H31  1  0.73755000  0.46135000  0.12325000  1.0
  C  C32  1  0.62663000  0.18758000  0.42037000  1.0
  C  C33  1  0.12663000  0.31242000  0.07963000  1.0
  C  C34  1  0.37337000  0.81242000  0.57962000  1.0
  C  C35  1  0.87337000  0.68758000  0.92038000  1.0
  C  C36  1  0.57169000  0.36424000  0.60021000  1.0
  C  C37  1  0.07169000  0.13576000  0.89979000  1.0
  C  C38  1  0.42831000  0.63576000  0.39979000  1.0
  C  C39  1  0.92830000  0.86424000  0.10021000  1.0
  C  C40  1  0.67594000  0.14865000  0.60288000  1.0
  C  C41  1  0.17595000  0.35135000  0.89712000  1.0
  C  C42  1  0.32405000  0.85135000  0.39712000  1.0
  C  C43  1  0.82405000  0.64865000  0.10288000  1.0
  C  C44  1  0.92964000  0.69332000  0.52144000  1.0
  C  C45  1  0.42965000  0.80668000  0.97855000  1.0
  C  C46  1  0.07036000  0.30668000  0.47855000  1.0
  C  C47  1  0.57036000  0.19332000  0.02145000  1.0
  C  C48  1  0.01807000  0.56558000  0.53658000  1.0
  C  C49  1  0.51807000  0.93442000  0.96342000  1.0
  C  C50  1  0.98193000  0.43442000  0.46341000  1.0
  C  C51  1  0.48193000  0.06558000  0.03659000  1.0
  N  N52  1  0.68449000  0.09735000  0.47861000  1.0
  N  N53  1  0.18449000  0.40265000  0.02139000  1.0
  N  N54  1  0.31551000  0.90265000  0.52139000  1.0
  N  N55  1  0.81550000  0.59735000  0.97861000  1.0
  N  N56  1  0.56812000  0.31948000  0.47741000  1.0
  N  N57  1  0.06812000  0.18052000  0.02259000  1.0
  N  N58  1  0.43188000  0.68053000  0.52260000  1.0
  N  N59  1  0.93188000  0.81947000  0.97740000  1.0
  N  N60  1  0.62493000  0.28294000  0.66742000  1.0
  N  N61  1  0.12493000  0.21706000  0.83258000  1.0
  N  N62  1  0.37507000  0.71705000  0.33258000  1.0
  N  N63  1  0.87506000  0.78295000  0.16742000  1.0
  N  N64  1  0.62546000  0.14274000  0.29846000  1.0
  N  N65  1  0.12546000  0.35726000  0.20154000  1.0
  N  N66  1  0.37454000  0.85726000  0.70154000  1.0
  N  N67  1  0.87454000  0.64274000  0.79846000  1.0
  N  N68  1  0.52136000  0.49751000  0.65670000  1.0
  N  N69  1  0.02137000  0.00249000  0.84330000  1.0
  N  N70  1  0.47864000  0.50249000  0.34330000  1.0
  N  N71  1  0.97863000  0.99751000  0.15670000  1.0
  N  N72  1  0.72179000  0.06398000  0.66550000  1.0
  N  N73  1  0.22179000  0.43602000  0.83450000  1.0
  N  N74  1  0.27821000  0.93601000  0.33450000  1.0
  N  N75  1  0.77821000  0.56399000  0.16550000  1.0
  O  O76  1  0.89325000  0.69242000  0.41356000  1.0
  O  O77  1  0.39325000  0.80758000  0.08644000  1.0
  O  O78  1  0.10675000  0.30758000  0.58644000  1.0
  O  O79  1  0.60675000  0.19242000  0.91356000  1.0
  O  O80  1  0.89675000  0.79505000  0.61890000  1.0
  O  O81  1  0.39675000  0.70495000  0.88110000  1.0
  O  O82  1  0.10325000  0.20495000  0.38110000  1.0
  O  O83  1  0.60326000  0.29505000  0.11890000  1.0
