# generated using pymatgen
data_CdH14C18S2(NO)4
_symmetry_space_group_name_H-M   'P 1'
_cell_length_a   5.84485000
_cell_length_b   5.85409000
_cell_length_c   15.27575140
_cell_angle_alpha   89.83446733
_cell_angle_beta   87.48069096
_cell_angle_gamma   110.73000000
_symmetry_Int_Tables_number   1
_chemical_formula_structural   CdH14C18S2(NO)4
_chemical_formula_sum   'Cd1 H14 C18 S2 N4 O4'
_cell_volume   488.27279862
_cell_formula_units_Z   1
loop_
 _symmetry_equiv_pos_site_id
 _symmetry_equiv_pos_as_xyz
  1  'x, y, z'
loop_
 _atom_site_type_symbol
 _atom_site_label
 _atom_site_symmetry_multiplicity
 _atom_site_fract_x
 _atom_site_fract_y
 _atom_site_fract_z
 _atom_site_occupancy
  Cd  Cd0  1  0.13786000  0.13775000  0.49935000  1.0
  H  H1  1  0.72892000  0.25164000  0.61852000  1.0
  H  H2  1  0.27515000  0.75270000  0.38134000  1.0
  H  H3  1  0.64023000  0.31128000  0.77774000  1.0
  H  H4  1  0.33216000  0.66155000  0.22270000  1.0
  H  H5  1  0.12086000  0.81241000  0.67836000  1.0
  H  H6  1  0.83112000  0.13982000  0.32244000  1.0
  H  H7  1  0.82314000  0.12494000  0.89071000  1.0
  H  H8  1  0.14140000  0.83971000  0.10990000  1.0
  H  H9  1  0.07100000  0.89301000  0.92700000  1.0
  H  H10  1  0.90126000  0.07899000  0.07329000  1.0
  H  H11  1  0.27620000  0.65557000  0.77700000  1.0
  H  H12  1  0.69211000  0.31290000  0.22332000  1.0
  H  H13  1  0.40177000  0.60726000  0.03685000  1.0
  H  H14  1  0.59680000  0.39131000  0.96247000  1.0
  C  C15  1  0.79479000  0.16574000  0.67025000  1.0
  C  C16  1  0.18814000  0.81744000  0.32999000  1.0
  C  C17  1  0.74831000  0.19981000  0.75850000  1.0
  C  C18  1  0.22041000  0.76931000  0.24203000  1.0
  C  C19  1  0.01675000  0.92206000  0.70346000  1.0
  C  C20  1  0.94228000  0.03730000  0.29720000  1.0
  C  C21  1  0.84902000  0.09508000  0.82105000  1.0
  C  C22  1  0.11343000  0.86771000  0.17959000  1.0
  C  C23  1  0.98708000  0.95183000  0.79415000  1.0
  C  C24  1  0.97126000  0.00691000  0.20652000  1.0
  C  C25  1  0.09968000  0.84856000  0.85888000  1.0
  C  C26  1  0.86645000  0.11770000  0.14155000  1.0
  C  C27  1  0.23754000  0.70908000  0.84281000  1.0
  C  C28  1  0.73547000  0.26393000  0.15739000  1.0
  C  C29  1  0.34924000  0.61807000  0.91199000  1.0
  C  C30  1  0.63719000  0.36825000  0.08782000  1.0
  C  C31  1  0.37748000  0.72936000  0.56507000  1.0
  C  C32  1  0.73990000  0.38717000  0.43374000  1.0
  S  S33  1  0.41761000  0.50699000  0.61785000  1.0
  S  S34  1  0.52633000  0.43538000  0.38085000  1.0
  N  N35  1  0.92793000  0.03000000  0.64329000  1.0
  N  N36  1  0.05110000  0.94927000  0.35698000  1.0
  N  N37  1  0.34838000  0.89406000  0.52776000  1.0
  N  N38  1  0.89838000  0.35248000  0.47111000  1.0
  O  O39  1  0.47073000  0.48376000  0.89364000  1.0
  O  O40  1  0.51345000  0.50036000  0.10637000  1.0
  O  O41  1  0.31737000  0.68496000  0.99307000  1.0
  O  O42  1  0.68438000  0.31665000  0.00611000  1.0
