# generated using pymatgen
data_CdH6C6(N2O)2
_symmetry_space_group_name_H-M   'P 1'
_cell_length_a   12.57720000
_cell_length_b   12.66850000
_cell_length_c   12.66930000
_cell_angle_alpha   96.59910000
_cell_angle_beta   96.53910000
_cell_angle_gamma   96.53950000
_symmetry_Int_Tables_number   1
_chemical_formula_structural   CdH6C6(N2O)2
_chemical_formula_sum   'Cd6 H36 C36 N24 O12'
_cell_volume   1975.67568938
_cell_formula_units_Z   6
loop_
 _symmetry_equiv_pos_site_id
 _symmetry_equiv_pos_as_xyz
  1  'x, y, z'
loop_
 _atom_site_type_symbol
 _atom_site_label
 _atom_site_symmetry_multiplicity
 _atom_site_fract_x
 _atom_site_fract_y
 _atom_site_fract_z
 _atom_site_occupancy
  Cd  Cd0  1  0.23224000  0.96270000  0.67187000  1.0
  Cd  Cd1  1  0.67278000  0.23207000  0.96279000  1.0
  Cd  Cd2  1  0.96276000  0.67105000  0.23353000  1.0
  Cd  Cd3  1  0.76776000  0.03730000  0.32813000  1.0
  Cd  Cd4  1  0.32722000  0.76793000  0.03721000  1.0
  Cd  Cd5  1  0.03724000  0.32895000  0.76647000  1.0
  H  H6  1  0.91735000  0.90630000  0.51136000  1.0
  H  H7  1  0.51162000  0.91893000  0.90709000  1.0
  H  H8  1  0.90746000  0.51055000  0.91952000  1.0
  H  H9  1  0.08265000  0.09370000  0.48864000  1.0
  H  H10  1  0.48839000  0.08107000  0.09291000  1.0
  H  H11  1  0.09254000  0.48945000  0.08049000  1.0
  H  H12  1  0.90925000  0.76437000  0.49500000  1.0
  H  H13  1  0.49535000  0.91081000  0.76515000  1.0
  H  H14  1  0.76448000  0.49426000  0.91170000  1.0
  H  H15  1  0.09074000  0.23563000  0.50500000  1.0
  H  H16  1  0.50465000  0.08919000  0.23485000  1.0
  H  H17  1  0.23552000  0.50574000  0.08830000  1.0
  H  H18  1  0.98868000  0.84171000  0.60943000  1.0
  H  H19  1  0.61060000  0.98976000  0.84248000  1.0
  H  H20  1  0.84237000  0.60871000  0.99059000  1.0
  H  H21  1  0.01132000  0.15829000  0.39057000  1.0
  H  H22  1  0.38940000  0.01024000  0.15752000  1.0
  H  H23  1  0.15763000  0.39129000  0.00941000  1.0
  H  H24  1  0.48534000  0.95522000  0.40344000  1.0
  H  H25  1  0.40293000  0.48329000  0.95407000  1.0
  H  H26  1  0.95449000  0.40306000  0.48387000  1.0
  H  H27  1  0.51466000  0.04478000  0.59657000  1.0
  H  H28  1  0.59707000  0.51671000  0.04593000  1.0
  H  H29  1  0.04551000  0.59694000  0.51613000  1.0
  H  H30  1  0.37368000  0.88809000  0.30705000  1.0
  H  H31  1  0.30597000  0.37226000  0.88711000  1.0
  H  H32  1  0.88750000  0.30658000  0.37269000  1.0
  H  H33  1  0.62632000  0.11191000  0.69294000  1.0
  H  H34  1  0.69403000  0.62774000  0.11289000  1.0
  H  H35  1  0.11250000  0.69341000  0.62731000  1.0
  H  H36  1  0.12432000  0.71305000  0.08591000  1.0
  H  H37  1  0.08386000  0.12443000  0.71204000  1.0
  H  H38  1  0.71320000  0.08503000  0.12447000  1.0
  H  H39  1  0.87568000  0.28695000  0.91409000  1.0
  H  H40  1  0.91614000  0.87557000  0.28796000  1.0
  H  H41  1  0.28680000  0.91497000  0.87553000  1.0
  C  C42  1  0.05934000  0.84461000  0.46407000  1.0
  C  C43  1  0.46409000  0.05977000  0.84533000  1.0
  C  C44  1  0.84547000  0.46322000  0.06044000  1.0
  C  C45  1  0.94066000  0.15539000  0.53593000  1.0
  C  C46  1  0.53591000  0.94023000  0.15467000  1.0
  C  C47  1  0.15453000  0.53678000  0.93956000  1.0
  C  C48  1  0.33886000  0.92938000  0.45757000  1.0
  C  C49  1  0.45744000  0.33780000  0.92925000  1.0
  C  C50  1  0.92921000  0.45709000  0.33846000  1.0
  C  C51  1  0.66114000  0.07062000  0.54242000  1.0
  C  C52  1  0.54256000  0.66220000  0.07075000  1.0
  C  C53  1  0.07079000  0.54291000  0.66154000  1.0
  C  C54  1  0.22395000  0.88535000  0.42740000  1.0
  C  C55  1  0.42701000  0.22341000  0.88550000  1.0
  C  C56  1  0.88552000  0.42674000  0.22409000  1.0
  C  C57  1  0.77605000  0.11465000  0.57260000  1.0
  C  C58  1  0.57299000  0.77660000  0.11450000  1.0
  C  C59  1  0.11448000  0.57325000  0.77591000  1.0
  C  C60  1  0.16095000  0.82928000  0.33509000  1.0
  C  C61  1  0.33434000  0.16061000  0.82908000  1.0
  C  C62  1  0.82990000  0.33423000  0.16117000  1.0
  C  C63  1  0.83905000  0.17072000  0.66491000  1.0
  C  C64  1  0.66566000  0.83939000  0.17092000  1.0
  C  C65  1  0.17010000  0.66577000  0.83883000  1.0
  C  C66  1  0.18389000  0.79443000  0.22523000  1.0
  C  C67  1  0.22401000  0.18344000  0.79363000  1.0
  C  C68  1  0.79465000  0.22446000  0.18398000  1.0
  C  C69  1  0.81611000  0.20557000  0.77477000  1.0
  C  C70  1  0.77599000  0.81656000  0.20637000  1.0
  C  C71  1  0.20535000  0.77555000  0.81602000  1.0
  C  C72  1  0.96350000  0.83883000  0.52321000  1.0
  C  C73  1  0.52375000  0.96469000  0.83964000  1.0
  C  C74  1  0.83956000  0.52250000  0.96543000  1.0
  C  C75  1  0.03650000  0.16117000  0.47679000  1.0
  C  C76  1  0.47625000  0.03531000  0.16036000  1.0
  C  C77  1  0.16044000  0.47750000  0.03457000  1.0
  N  N78  1  0.05805000  0.80413000  0.36054000  1.0
  N  N79  1  0.36000000  0.05839000  0.80433000  1.0
  N  N80  1  0.80531000  0.35949000  0.05884000  1.0
  N  N81  1  0.94195000  0.19587000  0.63946000  1.0
  N  N82  1  0.64000000  0.94161000  0.19567000  1.0
  N  N83  1  0.19469000  0.64052000  0.94116000  1.0
  N  N84  1  0.15781000  0.89408000  0.50646000  1.0
  N  N85  1  0.50650000  0.15765000  0.89486000  1.0
  N  N86  1  0.89438000  0.50580000  0.15851000  1.0
  N  N87  1  0.84219000  0.10592000  0.49354000  1.0
  N  N88  1  0.49350000  0.84235000  0.10514000  1.0
  N  N89  1  0.10562000  0.49420000  0.84149000  1.0
  N  N90  1  0.40565000  0.92304000  0.38351000  1.0
  N  N91  1  0.38283000  0.40410000  0.92249000  1.0
  N  N92  1  0.92270000  0.38300000  0.40467000  1.0
  N  N93  1  0.59435000  0.07696000  0.61649000  1.0
  N  N94  1  0.61717000  0.59590000  0.07752000  1.0
  N  N95  1  0.07730000  0.61700000  0.59533000  1.0
  N  N96  1  0.10498000  0.73410000  0.16107000  1.0
  N  N97  1  0.15929000  0.10489000  0.73369000  1.0
  N  N98  1  0.73498000  0.15998000  0.10511000  1.0
  N  N99  1  0.89502000  0.26590000  0.83893000  1.0
  N  N100  1  0.84071000  0.89511000  0.26631000  1.0
  N  N101  1  0.26502000  0.84002000  0.89489000  1.0
  O  O102  1  0.37099000  0.97155000  0.55393000  1.0
  O  O103  1  0.55428000  0.37005000  0.97162000  1.0
  O  O104  1  0.97140000  0.55344000  0.37079000  1.0
  O  O105  1  0.62901000  0.02845000  0.44607000  1.0
  O  O106  1  0.44572000  0.62995000  0.02838000  1.0
  O  O107  1  0.02860000  0.44656000  0.62921000  1.0
  O  O108  1  0.27829000  0.82543000  0.19950000  1.0
  O  O109  1  0.19869000  0.27765000  0.82385000  1.0
  O  O110  1  0.82454000  0.19926000  0.27824000  1.0
  O  O111  1  0.72172000  0.17457000  0.80050000  1.0
  O  O112  1  0.80131000  0.72235000  0.17615000  1.0
  O  O113  1  0.17546000  0.80074000  0.72176000  1.0
