# generated using pymatgen
data_FeSi4H44(C11N2)2
_symmetry_space_group_name_H-M   'P 1'
_cell_length_a   9.15973000
_cell_length_b   11.05650000
_cell_length_c   15.96392043
_cell_angle_alpha   87.56871341
_cell_angle_beta   73.33593660
_cell_angle_gamma   65.53920000
_symmetry_Int_Tables_number   1
_chemical_formula_structural   FeSi4H44(C11N2)2
_chemical_formula_sum   'Fe2 Si8 H88 C44 N8'
_cell_volume   1404.41389797
_cell_formula_units_Z   2
loop_
 _symmetry_equiv_pos_site_id
 _symmetry_equiv_pos_as_xyz
  1  'x, y, z'
loop_
 _atom_site_type_symbol
 _atom_site_label
 _atom_site_symmetry_multiplicity
 _atom_site_fract_x
 _atom_site_fract_y
 _atom_site_fract_z
 _atom_site_occupancy
  Fe  Fe0  1  0.62851000  0.74965000  0.75040000  1.0
  Fe  Fe1  1  0.37171000  0.24963000  0.25034000  1.0
  Si  Si2  1  0.89468000  0.82965000  0.61855000  1.0
  Si  Si3  1  0.15700000  0.32968000  0.11854000  1.0
  Si  Si4  1  0.10426000  0.17052000  0.38179000  1.0
  Si  Si5  1  0.84341000  0.67044000  0.88190000  1.0
  Si  Si6  1  0.54919000  0.05070000  0.70585000  1.0
  Si  Si7  1  0.19444000  0.55062000  0.20583000  1.0
  Si  Si8  1  0.44990000  0.94945000  0.29399000  1.0
  Si  Si9  1  0.80628000  0.44943000  0.79420000  1.0
  H  H10  1  0.12998000  0.61518000  0.55319000  1.0
  H  H11  1  0.20155000  0.11513000  0.05318000  1.0
  H  H12  1  0.86975000  0.38520000  0.44734000  1.0
  H  H13  1  0.79774000  0.88524000  0.94730000  1.0
  H  H14  1  0.93931000  0.59941000  0.57070000  1.0
  H  H15  1  0.39036000  0.09948000  0.07075000  1.0
  H  H16  1  0.06077000  0.40052000  0.42940000  1.0
  H  H17  1  0.60940000  0.90046000  0.92931000  1.0
  H  H18  1  0.01766000  0.59540000  0.66081000  1.0
  H  H19  1  0.22591000  0.09550000  0.16083000  1.0
  H  H20  1  0.98145000  0.40487000  0.33962000  1.0
  H  H21  1  0.77421000  0.90466000  0.83955000  1.0
  H  H22  1  0.02127000  0.85104000  0.46238000  1.0
  H  H23  1  0.16525000  0.35115000  0.96234000  1.0
  H  H24  1  0.97742000  0.14909000  0.53761000  1.0
  H  H25  1  0.83556000  0.64892000  0.03777000  1.0
  H  H26  1  0.83788000  0.99889000  0.50676000  1.0
  H  H27  1  0.15640000  0.49898000  0.00679000  1.0
  H  H28  1  0.16088000  0.00112000  0.49354000  1.0
  H  H29  1  0.84411000  0.50104000  0.99353000  1.0
  H  H30  1  0.82156000  0.85381000  0.47664000  1.0
  H  H31  1  0.34785000  0.35391000  0.97671000  1.0
  H  H32  1  0.17705000  0.14622000  0.52397000  1.0
  H  H33  1  0.65249000  0.64615000  0.02396000  1.0
  H  H34  1  0.16478000  0.83763000  0.61573000  1.0
  H  H35  1  0.88186000  0.33757000  0.11561000  1.0
  H  H36  1  0.83369000  0.16353000  0.38473000  1.0
  H  H37  1  0.11793000  0.66353000  0.88493000  1.0
  H  H38  1  0.03704000  0.85021000  0.72516000  1.0
  H  H39  1  0.88746000  0.35011000  0.22509000  1.0
  H  H40  1  0.96204000  0.15008000  0.27522000  1.0
  H  H41  1  0.11254000  0.65009000  0.77541000  1.0
  H  H42  1  0.99389000  0.99185000  0.66312000  1.0
  H  H43  1  0.85100000  0.49179000  0.16309000  1.0
  H  H44  1  0.00408000  0.00875000  0.33766000  1.0
  H  H45  1  0.14947000  0.50871000  0.83783000  1.0
  H  H46  1  0.55011000  0.27389000  0.68837000  1.0
  H  H47  1  0.98756000  0.77383000  0.18848000  1.0
  H  H48  1  0.44936000  0.72618000  0.31109000  1.0
  H  H49  1  0.01305000  0.22620000  0.81116000  1.0
  H  H50  1  0.71085000  0.16282000  0.59957000  1.0
  H  H51  1  0.02664000  0.66261000  0.09975000  1.0
  H  H52  1  0.28841000  0.83725000  0.40000000  1.0
  H  H53  1  0.97422000  0.33716000  0.90009000  1.0
  H  H54  1  0.74006000  0.16003000  0.70507000  1.0
  H  H55  1  0.89481000  0.65988000  0.20527000  1.0
  H  H56  1  0.25924000  0.84008000  0.29445000  1.0
  H  H57  1  0.10591000  0.34015000  0.79453000  1.0
  H  H58  1  0.46890000  0.06714000  0.56832000  1.0
  H  H59  1  0.39566000  0.56705000  0.06822000  1.0
  H  H60  1  0.53059000  0.93397000  0.43146000  1.0
  H  H61  1  0.60339000  0.43393000  0.93167000  1.0
  H  H62  1  0.29735000  0.18003000  0.65365000  1.0
  H  H63  1  0.36893000  0.68009000  0.15353000  1.0
  H  H64  1  0.70184000  0.82059000  0.34620000  1.0
  H  H65  1  0.63092000  0.32061000  0.84631000  1.0
  H  H66  1  0.34146000  0.00832000  0.64847000  1.0
  H  H67  1  0.50170000  0.50836000  0.14845000  1.0
  H  H68  1  0.65755000  0.99240000  0.35058000  1.0
  H  H69  1  0.49912000  0.49241000  0.85068000  1.0
  H  H70  1  0.34042000  0.21651000  0.82846000  1.0
  H  H71  1  0.11508000  0.71639000  0.32843000  1.0
  H  H72  1  0.66076000  0.78482000  0.17116000  1.0
  H  H73  1  0.88285000  0.28476000  0.67138000  1.0
  H  H74  1  0.51753000  0.10879000  0.86046000  1.0
  H  H75  1  0.01397000  0.60849000  0.36045000  1.0
  H  H76  1  0.48365000  0.89183000  0.13883000  1.0
  H  H77  1  0.98502000  0.39197000  0.63907000  1.0
  H  H78  1  0.35926000  0.05676000  0.85985000  1.0
  H  H79  1  0.22494000  0.55661000  0.35970000  1.0
  H  H80  1  0.64012000  0.94529000  0.14071000  1.0
  H  H81  1  0.77324000  0.44522000  0.64100000  1.0
  H  H82  1  0.27247000  0.89426000  0.74640000  1.0
  H  H83  1  0.58753000  0.39410000  0.24655000  1.0
  H  H84  1  0.73202000  0.10933000  0.25320000  1.0
  H  H85  1  0.40597000  0.60936000  0.75336000  1.0
  H  H86  1  0.99763000  0.02218000  0.85102000  1.0
  H  H87  1  0.63007000  0.52171000  0.35129000  1.0
  H  H88  1  0.00772000  0.98209000  0.14869000  1.0
  H  H89  1  0.36212000  0.48183000  0.64891000  1.0
  H  H90  1  0.48506000  0.73274000  0.94476000  1.0
  H  H91  1  0.33732000  0.23282000  0.44468000  1.0
  H  H92  1  0.51665000  0.26201000  0.05492000  1.0
  H  H93  1  0.66608000  0.76241000  0.55491000  1.0
  H  H94  1  0.21851000  0.85376000  0.05935000  1.0
  H  H95  1  0.36814000  0.35375000  0.55940000  1.0
  H  H96  1  0.78264000  0.14043000  0.94022000  1.0
  H  H97  1  0.63626000  0.64077000  0.44031000  1.0
  C  C98  1  0.00434000  0.64224000  0.59982000  1.0
  C  C99  1  0.25339000  0.14229000  0.09982000  1.0
  C  C100  1  0.99522000  0.35792000  0.40052000  1.0
  C  C101  1  0.74642000  0.85782000  0.90050000  1.0
  C  C102  1  0.89198000  0.88996000  0.50643000  1.0
  C  C103  1  0.21150000  0.39007000  0.00645000  1.0
  C  C104  1  0.10699000  0.11005000  0.49390000  1.0
  C  C105  1  0.78879000  0.60999000  0.99395000  1.0
  C  C106  1  0.03504000  0.88330000  0.65948000  1.0
  C  C107  1  0.92208000  0.38325000  0.15944000  1.0
  C  C108  1  0.96345000  0.11725000  0.34101000  1.0
  C  C109  1  0.07822000  0.61721000  0.84119000  1.0
  C  C110  1  0.64833000  0.17147000  0.67022000  1.0
  C  C111  1  0.00992000  0.67137000  0.17040000  1.0
  C  C112  1  0.35099000  0.82854000  0.32933000  1.0
  C  C113  1  0.99090000  0.32853000  0.82942000  1.0
  C  C114  1  0.39971000  0.07893000  0.63854000  1.0
  C  C115  1  0.38282000  0.57895000  0.13844000  1.0
  C  C116  1  0.59939000  0.92167000  0.36115000  1.0
  C  C117  1  0.61735000  0.42168000  0.86133000  1.0
  C  C118  1  0.43013000  0.11190000  0.82463000  1.0
  C  C119  1  0.13400000  0.61172000  0.32458000  1.0
  C  C120  1  0.57006000  0.88915000  0.17521000  1.0
  C  C121  1  0.86501000  0.38914000  0.67546000  1.0
  C  C122  1  0.25603000  0.89032000  0.81660000  1.0
  C  C123  1  0.53754000  0.39018000  0.31674000  1.0
  C  C124  1  0.74802000  0.11099000  0.18300000  1.0
  C  C125  1  0.45835000  0.61103000  0.68314000  1.0
  C  C126  1  0.10155000  0.96248000  0.87632000  1.0
  C  C127  1  0.56030000  0.46216000  0.37651000  1.0
  C  C128  1  0.90284000  0.03891000  0.12333000  1.0
  C  C129  1  0.43538000  0.53878000  0.62351000  1.0
  C  C130  1  0.37380000  0.80048000  0.92755000  1.0
  C  C131  1  0.39821000  0.30049000  0.42755000  1.0
  C  C132  1  0.62857000  0.19589000  0.07215000  1.0
  C  C133  1  0.60325000  0.69616000  0.57221000  1.0
  C  C134  1  0.22312000  0.86940000  0.99108000  1.0
  C  C135  1  0.41635000  0.36937000  0.49116000  1.0
  C  C136  1  0.77913000  0.12675000  0.00853000  1.0
  C  C137  1  0.58543000  0.62695000  0.50863000  1.0
  C  C138  1  0.08076000  0.95846000  0.96734000  1.0
  C  C139  1  0.49366000  0.45830000  0.46751000  1.0
  C  C140  1  0.92246000  0.04007000  0.03235000  1.0
  C  C141  1  0.50534000  0.53997000  0.53251000  1.0
  N  N142  1  0.69337000  0.88473000  0.69149000  1.0
  N  N143  1  0.23056000  0.38464000  0.19144000  1.0
  N  N144  1  0.30518000  0.11524000  0.30849000  1.0
  N  N145  1  0.77099000  0.61518000  0.80862000  1.0
  N  N146  1  0.39531000  0.81339000  0.84037000  1.0
  N  N147  1  0.45119000  0.31338000  0.34038000  1.0
  N  N148  1  0.60841000  0.18535000  0.15922000  1.0
  N  N149  1  0.54721000  0.68552000  0.65928000  1.0
