# generated using pymatgen
data_Zn2H19C26N3O8
_symmetry_space_group_name_H-M   'P 1'
_cell_length_a   9.74863000
_cell_length_b   10.89720000
_cell_length_c   11.09470000
_cell_angle_alpha   83.84720000
_cell_angle_beta   89.33090000
_cell_angle_gamma   87.60980000
_symmetry_Int_Tables_number   1
_chemical_formula_structural   Zn2H19C26N3O8
_chemical_formula_sum   'Zn2 H19 C26 N3 O8'
_cell_volume   1170.78105127
_cell_formula_units_Z   1
loop_
 _symmetry_equiv_pos_site_id
 _symmetry_equiv_pos_as_xyz
  1  'x, y, z'
loop_
 _atom_site_type_symbol
 _atom_site_label
 _atom_site_symmetry_multiplicity
 _atom_site_fract_x
 _atom_site_fract_y
 _atom_site_fract_z
 _atom_site_occupancy
  Zn  Zn0  1  0.63795000  0.49338000  0.49796000  1.0
  Zn  Zn1  1  0.35393000  0.50066000  0.50068000  1.0
  H  H2  1  0.67324000  0.93907000  0.35874000  1.0
  H  H3  1  0.81432000  0.57408000  0.87203000  1.0
  H  H4  1  0.82207000  0.40385000  0.11245000  1.0
  H  H5  1  0.81884000  0.56848000  0.10038000  1.0
  H  H6  1  0.11495000  0.68586000  0.52311000  1.0
  H  H7  1  0.85472000  0.68417000  0.52169000  1.0
  H  H8  1  0.89784000  0.20480000  0.54286000  1.0
  H  H9  1  0.13238000  0.26008000  0.35839000  1.0
  H  H10  1  0.71674000  0.04000000  0.58071000  1.0
  H  H11  1  0.31155000  0.05352000  0.64277000  1.0
  H  H12  1  0.26727000  0.95302000  0.41900000  1.0
  H  H13  1  0.45761000  0.12020000  0.30468000  1.0
  H  H14  1  0.27914000  0.49767000  0.11575000  1.0
  H  H15  1  0.27583000  0.50249000  0.89054000  1.0
  H  H16  1  0.81932000  0.40955000  0.88551000  1.0
  H  H17  1  0.87768000  0.28329000  0.28171000  1.0
  H  H18  1  0.75577000  0.23155000  0.37509000  1.0
  H  H19  1  0.15306000  0.20691000  0.51520000  1.0
  H  H20  1  0.52683000  0.87253000  0.69570000  1.0
  C  C21  1  0.49963000  0.49196000  0.26395000  1.0
  C  C22  1  0.36669000  0.97308000  0.45561000  1.0
  C  C23  1  0.47263000  0.06319000  0.39131000  1.0
  C  C24  1  0.49690000  0.11806000  0.51584000  1.0
  C  C25  1  0.61915000  0.49157000  0.05990000  1.0
  C  C26  1  0.49910000  0.49293000  0.12936000  1.0
  C  C27  1  0.37511000  0.49635000  0.06438000  1.0
  C  C28  1  0.37328000  0.49882000  0.93840000  1.0
  C  C29  1  0.49542000  0.49675000  0.86892000  1.0
  C  C30  1  0.61734000  0.49312000  0.93382000  1.0
  C  C31  1  0.77252000  0.49128000  0.92218000  1.0
  C  C32  1  0.49952000  0.25364000  0.52092000  1.0
  C  C33  1  0.77467000  0.48857000  0.06497000  1.0
  C  C34  1  0.07348000  0.40116000  0.47819000  1.0
  C  C35  1  0.06137000  0.60213000  0.51136000  1.0
  C  C36  1  0.91817000  0.60114000  0.51125000  1.0
  C  C37  1  0.93066000  0.39911000  0.48256000  1.0
  C  C38  1  0.92951000  0.26218000  0.46040000  1.0
  C  C39  1  0.09230000  0.26898000  0.45017000  1.0
  C  C40  1  0.49278000  0.49813000  0.73433000  1.0
  C  C41  1  0.48663000  0.73918000  0.47933000  1.0
  C  C42  1  0.61707000  0.01969000  0.54475000  1.0
  C  C43  1  0.59298000  0.96552000  0.42185000  1.0
  C  C44  1  0.48644000  0.87476000  0.48510000  1.0
  C  C45  1  0.51153000  0.92953000  0.60916000  1.0
  C  C46  1  0.39102000  0.02720000  0.57882000  1.0
  N  N47  1  0.14245000  0.50038000  0.49535000  1.0
  N  N48  1  0.84967000  0.49725000  0.49808000  1.0
  N  N49  1  0.85920000  0.22451000  0.35774000  1.0
  O  O50  1  0.61608000  0.50040000  0.31309000  1.0
  O  O51  1  0.38471000  0.48271000  0.31962000  1.0
  O  O52  1  0.61565000  0.30320000  0.50333000  1.0
  O  O53  1  0.38533000  0.31078000  0.53692000  1.0
  O  O54  1  0.60835000  0.48165000  0.68191000  1.0
  O  O55  1  0.37672000  0.51556000  0.68223000  1.0
  O  O56  1  0.60386000  0.68238000  0.48908000  1.0
  O  O57  1  0.37158000  0.68974000  0.46966000  1.0
