# generated using pymatgen
data_ZnH14C16(NO2)2
_symmetry_space_group_name_H-M   'P 1'
_cell_length_a   8.09008000
_cell_length_b   11.02680000
_cell_length_c   19.59729450
_cell_angle_alpha   85.65084702
_cell_angle_beta   78.08954806
_cell_angle_gamma   68.48470000
_symmetry_Int_Tables_number   1
_chemical_formula_structural   ZnH14C16(NO2)2
_chemical_formula_sum   'Zn4 H56 C64 N8 O16'
_cell_volume   1591.39776697
_cell_formula_units_Z   4
loop_
 _symmetry_equiv_pos_site_id
 _symmetry_equiv_pos_as_xyz
  1  'x, y, z'
loop_
 _atom_site_type_symbol
 _atom_site_label
 _atom_site_symmetry_multiplicity
 _atom_site_fract_x
 _atom_site_fract_y
 _atom_site_fract_z
 _atom_site_occupancy
  Zn  Zn0  1  0.49590000  0.58399000  0.70851000  1.0
  Zn  Zn1  1  0.92020000  0.58399000  0.29153000  1.0
  Zn  Zn2  1  0.95406000  0.08387000  0.79143000  1.0
  Zn  Zn3  1  0.96180000  0.08375000  0.20846000  1.0
  H  H4  1  0.50090000  0.86065000  0.71695000  1.0
  H  H5  1  0.63857000  0.86039000  0.28303000  1.0
  H  H6  1  0.96819000  0.36029000  0.78307000  1.0
  H  H7  1  0.67229000  0.36034000  0.21700000  1.0
  H  H8  1  0.59550000  0.97559000  0.79976000  1.0
  H  H9  1  0.42900000  0.97521000  0.20020000  1.0
  H  H10  1  0.14623000  0.47503000  0.70044000  1.0
  H  H11  1  0.37996000  0.47544000  0.29971000  1.0
  H  H12  1  0.78869000  0.60514000  0.90537000  1.0
  H  H13  1  0.60650000  0.60470000  0.09464000  1.0
  H  H14  1  0.44459000  0.10464000  0.59478000  1.0
  H  H15  1  0.45074000  0.10508000  0.40534000  1.0
  H  H16  1  0.67917000  0.51062000  0.82300000  1.0
  H  H17  1  0.81043000  0.51034000  0.17709000  1.0
  H  H18  1  0.25222000  0.01029000  0.67708000  1.0
  H  H19  1  0.73722000  0.01043000  0.32309000  1.0
  H  H20  1  0.69682000  0.97459000  0.90517000  1.0
  H  H21  1  0.32889000  0.97421000  0.09479000  1.0
  H  H22  1  0.35230000  0.47420000  0.59500000  1.0
  H  H23  1  0.17391000  0.47471000  0.40507000  1.0
  H  H24  1  0.99274000  0.69769000  0.07122000  1.0
  H  H25  1  0.30953000  0.69785000  0.92864000  1.0
  H  H26  1  0.81389000  0.19806000  0.42879000  1.0
  H  H27  1  0.98868000  0.19815000  0.57141000  1.0
  H  H28  1  0.04008000  0.80895000  0.16580000  1.0
  H  H29  1  0.15076000  0.80925000  0.83413000  1.0
  H  H30  1  0.95580000  0.30940000  0.33424000  1.0
  H  H31  1  0.73548000  0.30944000  0.66594000  1.0
  H  H32  1  0.76058000  0.17468000  0.09133000  1.0
  H  H33  1  0.06417000  0.17485000  0.90885000  1.0
  H  H34  1  0.60193000  0.67503000  0.40879000  1.0
  H  H35  1  0.72275000  0.67513000  0.59106000  1.0
  H  H36  1  0.69281000  0.07792000  0.99442000  1.0
  H  H37  1  0.22917000  0.07790000  0.00561000  1.0
  H  H38  1  0.43723000  0.57819000  0.50567000  1.0
  H  H39  1  0.98415000  0.57839000  0.49414000  1.0
  H  H40  1  0.14711000  0.73847000  0.54925000  1.0
  H  H41  1  0.11344000  0.73927000  0.45074000  1.0
  H  H42  1  0.44593000  0.23889000  0.95057000  1.0
  H  H43  1  0.31501000  0.23877000  0.04943000  1.0
  H  H44  1  0.14342000  0.89974000  0.55471000  1.0
  H  H45  1  0.95609000  0.90058000  0.44520000  1.0
  H  H46  1  0.44787000  0.40008000  0.94513000  1.0
  H  H47  1  0.15208000  0.40005000  0.05481000  1.0
  H  H48  1  0.94324000  0.76351000  0.66626000  1.0
  H  H49  1  0.29268000  0.76393000  0.33385000  1.0
  H  H50  1  0.35914000  0.26376000  0.83368000  1.0
  H  H51  1  0.37644000  0.26365000  0.16648000  1.0
  H  H52  1  0.83995000  0.87622000  0.60288000  1.0
  H  H53  1  0.28312000  0.87690000  0.39711000  1.0
  H  H54  1  0.19243000  0.37680000  0.89689000  1.0
  H  H55  1  0.43056000  0.37650000  0.10321000  1.0
  H  H56  1  0.85558000  0.70535000  0.97356000  1.0
  H  H57  1  0.43882000  0.70508000  0.02639000  1.0
  H  H58  1  0.58020000  0.20526000  0.52652000  1.0
  H  H59  1  0.21516000  0.20565000  0.47353000  1.0
  C  C60  1  0.56373000  0.81005000  0.76023000  1.0
  C  C61  1  0.62635000  0.80976000  0.23975000  1.0
  C  C62  1  0.07440000  0.30963000  0.73982000  1.0
  C  C63  1  0.61659000  0.30976000  0.26026000  1.0
  C  C64  1  0.61688000  0.87212000  0.80603000  1.0
  C  C65  1  0.51111000  0.87174000  0.19394000  1.0
  C  C66  1  0.17366000  0.37161000  0.69411000  1.0
  C  C67  1  0.45556000  0.37195000  0.30603000  1.0
  C  C68  1  0.69673000  0.80139000  0.86111000  1.0
  C  C69  1  0.50204000  0.80099000  0.13887000  1.0
  C  C70  1  0.30855000  0.30088000  0.63904000  1.0
  C  C71  1  0.39106000  0.30135000  0.36110000  1.0
  C  C72  1  0.72500000  0.66750000  0.86515000  1.0
  C  C73  1  0.60774000  0.66712000  0.13485000  1.0
  C  C74  1  0.34063000  0.16703000  0.63497000  1.0
  C  C75  1  0.49249000  0.16744000  0.36518000  1.0
  C  C76  1  0.66581000  0.61289000  0.81837000  1.0
  C  C77  1  0.72149000  0.61260000  0.18166000  1.0
  C  C78  1  0.23444000  0.11251000  0.68172000  1.0
  C  C79  1  0.65309000  0.11272000  0.31843000  1.0
  C  C80  1  0.73566000  0.86928000  0.91295000  1.0
  C  C81  1  0.39528000  0.86889000  0.08701000  1.0
  C  C82  1  0.39918000  0.36889000  0.58721000  1.0
  C  C83  1  0.23237000  0.36940000  0.41289000  1.0
  C  C84  1  0.80984000  0.81134000  0.96827000  1.0
  C  C85  1  0.37885000  0.81107000  0.03169000  1.0
  C  C86  1  0.52866000  0.31125000  0.53183000  1.0
  C  C87  1  0.16048000  0.31164000  0.46823000  1.0
  C  C88  1  0.83759000  0.87779000  0.02374000  1.0
  C  C89  1  0.28456000  0.87775000  0.97626000  1.0
  C  C90  1  0.61147000  0.37802000  0.47638000  1.0
  C  C91  1  0.01081000  0.37821000  0.52366000  1.0
  C  C92  1  0.93576000  0.80379000  0.07361000  1.0
  C  C93  1  0.26036000  0.80394000  0.92630000  1.0
  C  C94  1  0.75930000  0.30415000  0.42642000  1.0
  C  C95  1  0.93702000  0.30426000  0.57369000  1.0
  C  C96  1  0.96372000  0.86544000  0.12696000  1.0
  C  C97  1  0.17057000  0.86570000  0.87301000  1.0
  C  C98  1  0.84057000  0.36585000  0.37308000  1.0
  C  C99  1  0.79405000  0.36592000  0.62703000  1.0
  C  C100  1  0.80498000  0.06928000  0.08525000  1.0
  C  C101  1  0.12528000  0.06944000  0.91487000  1.0
  C  C102  1  0.64015000  0.56963000  0.41486000  1.0
  C  C103  1  0.79013000  0.56974000  0.58509000  1.0
  C  C104  1  0.76997000  0.01441000  0.03113000  1.0
  C  C105  1  0.21548000  0.01440000  0.96891000  1.0
  C  C106  1  0.55106000  0.51468000  0.46896000  1.0
  C  C107  1  0.93412000  0.51486000  0.53096000  1.0
  C  C108  1  0.28848000  0.76039000  0.62470000  1.0
  C  C109  1  0.95035000  0.76111000  0.37528000  1.0
  C  C110  1  0.66281000  0.26070000  0.87513000  1.0
  C  C111  1  0.07611000  0.26063000  0.12469000  1.0
  C  C112  1  0.13267000  0.81467000  0.58555000  1.0
  C  C113  1  0.05188000  0.81547000  0.41439000  1.0
  C  C114  1  0.46783000  0.31509000  0.91425000  1.0
  C  C115  1  0.21686000  0.31498000  0.08570000  1.0
  C  C116  1  0.94624000  0.84897000  0.63416000  1.0
  C  C117  1  0.20421000  0.84955000  0.36581000  1.0
  C  C118  1  0.33002000  0.34940000  0.86564000  1.0
  C  C119  1  0.32016000  0.34921000  0.13442000  1.0
  C  C120  1  0.91295000  0.96345000  0.68066000  1.0
  C  C121  1  0.12355000  0.96373000  0.31907000  1.0
  C  C122  1  0.34349000  0.46362000  0.81896000  1.0
  C  C123  1  0.19240000  0.46353000  0.18099000  1.0
  N  N124  1  0.58458000  0.68285000  0.76689000  1.0
  N  N125  1  0.73267000  0.68258000  0.23314000  1.0
  N  N126  1  0.10171000  0.18249000  0.73315000  1.0
  N  N127  1  0.71605000  0.18255000  0.26693000  1.0
  N  N128  1  0.90040000  0.99642000  0.13253000  1.0
  N  N129  1  0.10259000  0.99670000  0.86756000  1.0
  N  N130  1  0.78284000  0.49683000  0.36757000  1.0
  N  N131  1  0.72053000  0.49690000  0.63248000  1.0
  O  O132  1  0.29570000  0.65246000  0.65784000  1.0
  O  O133  1  0.05107000  0.65311000  0.34223000  1.0
  O  O134  1  0.70294000  0.15297000  0.84182000  1.0
  O  O135  1  0.14374000  0.15256000  0.15773000  1.0
  O  O136  1  0.39975000  0.81555000  0.62310000  1.0
  O  O137  1  0.78393000  0.81627000  0.37688000  1.0
  O  O138  1  0.77267000  0.31559000  0.87690000  1.0
  O  O139  1  0.91130000  0.31583000  0.12310000  1.0
  O  O140  1  0.98834000  0.93220000  0.73537000  1.0
  O  O141  1  0.08013000  0.93209000  0.26429000  1.0
  O  O142  1  0.47383000  0.43210000  0.76434000  1.0
  O  O143  1  0.09369000  0.43211000  0.23568000  1.0
  O  O144  1  0.82613000  0.07722000  0.66399000  1.0
  O  O145  1  0.09621000  0.07763000  0.33562000  1.0
  O  O146  1  0.23992000  0.57743000  0.83542000  1.0
  O  O147  1  0.18201000  0.57735000  0.16440000  1.0
