# generated using pymatgen
data_ZnH24C29(NO2)2
_symmetry_space_group_name_H-M   'P 1'
_cell_length_a   15.53260000
_cell_length_b   16.65200000
_cell_length_c   17.75540000
_cell_angle_alpha   87.50210000
_cell_angle_beta   86.55510000
_cell_angle_gamma   69.32990000
_symmetry_Int_Tables_number   1
_chemical_formula_structural   ZnH24C29(NO2)2
_chemical_formula_sum   'Zn2 H48 C58 N4 O8'
_cell_volume   4287.79782005
_cell_formula_units_Z   2
loop_
 _symmetry_equiv_pos_site_id
 _symmetry_equiv_pos_as_xyz
  1  'x, y, z'
loop_
 _atom_site_type_symbol
 _atom_site_label
 _atom_site_symmetry_multiplicity
 _atom_site_fract_x
 _atom_site_fract_y
 _atom_site_fract_z
 _atom_site_occupancy
  Zn  Zn0  1  0.50434000  0.58567000  0.49389000  1.0
  Zn  Zn1  1  0.50860000  0.40954000  0.50585000  1.0
  H  H2  1  0.89910000  0.73091000  0.45824000  1.0
  H  H3  1  0.12100000  0.27371000  0.41842000  1.0
  H  H4  1  0.40487000  0.88480000  0.58976000  1.0
  H  H5  1  0.58659000  0.11307000  0.40835000  1.0
  H  H6  1  0.41439000  0.73230000  0.57571000  1.0
  H  H7  1  0.57954000  0.26544000  0.41741000  1.0
  H  H8  1  0.77835000  0.53234000  0.46799000  1.0
  H  H9  1  0.23987000  0.46706000  0.45797000  1.0
  H  H10  1  0.80959000  0.26839000  0.45845000  1.0
  H  H11  1  0.20391000  0.73026000  0.48603000  1.0
  H  H12  1  0.83058000  0.62038000  0.45226000  1.0
  H  H13  1  0.18766000  0.38379000  0.42151000  1.0
  H  H14  1  0.36701000  0.64053000  0.13429000  1.0
  H  H15  1  0.47823000  0.37948000  0.88074000  1.0
  H  H16  1  0.39315000  0.63056000  0.27250000  1.0
  H  H17  1  0.50760000  0.37739000  0.74069000  1.0
  H  H18  1  0.54400000  0.36050000  0.25608000  1.0
  H  H19  1  0.46248000  0.64678000  0.73642000  1.0
  H  H20  1  0.52203000  0.36967000  0.11709000  1.0
  H  H21  1  0.43191000  0.65060000  0.87648000  1.0
  H  H22  1  0.51460000  0.67886000  0.31123000  1.0
  H  H23  1  0.56594000  0.75625000  0.28169000  1.0
  H  H24  1  0.62434000  0.64539000  0.26331000  1.0
  H  H25  1  0.69302000  0.68485000  0.37350000  1.0
  H  H26  1  0.63899000  0.61048000  0.40123000  1.0
  H  H27  1  0.25992000  0.30458000  0.60295000  1.0
  H  H28  1  0.24651000  0.39972000  0.65163000  1.0
  H  H29  1  0.27991000  0.39260000  0.55439000  1.0
  H  H30  1  0.39781000  0.28939000  0.68317000  1.0
  H  H31  1  0.41522000  0.37479000  0.63008000  1.0
  H  H32  1  0.69628000  0.89257000  0.48277000  1.0
  H  H33  1  0.75275000  0.78531000  0.45378000  1.0
  H  H34  1  0.76196000  0.87184000  0.39557000  1.0
  H  H35  1  0.64976000  0.81742000  0.34133000  1.0
  H  H36  1  0.59081000  0.92133000  0.37574000  1.0
  H  H37  1  0.53508000  0.04277000  0.67341000  1.0
  H  H38  1  0.50100000  0.14238000  0.71967000  1.0
  H  H39  1  0.44227000  0.06947000  0.74263000  1.0
  H  H40  1  0.34637000  0.18777000  0.65886000  1.0
  H  H41  1  0.38254000  0.08907000  0.61228000  1.0
  H  H42  1  0.05727000  0.83098000  0.48084000  1.0
  H  H43  1  0.93629000  0.89835000  0.39632000  1.0
  H  H44  1  0.94643000  0.79511000  0.36574000  1.0
  H  H45  1  0.03787000  0.83420000  0.34385000  1.0
  H  H46  1  0.05283000  0.19943000  0.39871000  1.0
  H  H47  1  0.01104000  0.08079000  0.41386000  1.0
  H  H48  1  0.90515000  0.15398000  0.37945000  1.0
  H  H49  1  0.91863000  0.13462000  0.47835000  1.0
  C  C50  1  0.50304000  0.50944000  0.64611000  1.0
  C  C51  1  0.49020000  0.49085000  0.35435000  1.0
  C  C52  1  0.90528000  0.60165000  0.44880000  1.0
  C  C53  1  0.11307000  0.40232000  0.42797000  1.0
  C  C54  1  0.94329000  0.66415000  0.45146000  1.0
  C  C55  1  0.07460000  0.33991000  0.42559000  1.0
  C  C56  1  0.40645000  0.57940000  0.16096000  1.0
  C  C57  1  0.47442000  0.43801000  0.84889000  1.0
  C  C58  1  0.42089000  0.57393000  0.23776000  1.0
  C  C59  1  0.49074000  0.43677000  0.77118000  1.0
  C  C60  1  0.47164000  0.49533000  0.27217000  1.0
  C  C61  1  0.48675000  0.51187000  0.73018000  1.0
  C  C62  1  0.50579000  0.42148000  0.22860000  1.0
  C  C63  1  0.46526000  0.58880000  0.76869000  1.0
  C  C64  1  0.49311000  0.42651000  0.15153000  1.0
  C  C65  1  0.44824000  0.59089000  0.84646000  1.0
  C  C66  1  0.44438000  0.50602000  0.11612000  1.0
  C  C67  1  0.45333000  0.51519000  0.88807000  1.0
  C  C68  1  0.43867000  0.51178000  0.03668000  1.0
  C  C69  1  0.44195000  0.51493000  0.96775000  1.0
  C  C70  1  0.45103000  0.84420000  0.54699000  1.0
  C  C71  1  0.54791000  0.15303000  0.45465000  1.0
  C  C72  1  0.32782000  0.56814000  0.49623000  1.0
  C  C73  1  0.68499000  0.42747000  0.48207000  1.0
  C  C74  1  0.45588000  0.76044000  0.53939000  1.0
  C  C75  1  0.54394000  0.23690000  0.45918000  1.0
  C  C76  1  0.56691000  0.73719000  0.43941000  1.0
  C  C77  1  0.44855000  0.25928000  0.56942000  1.0
  C  C78  1  0.56643000  0.82173000  0.44328000  1.0
  C  C79  1  0.45138000  0.17363000  0.57053000  1.0
  C  C80  1  0.50721000  0.87593000  0.49843000  1.0
  C  C81  1  0.50115000  0.12011000  0.51123000  1.0
  C  C82  1  0.50439000  0.96131000  0.50433000  1.0
  C  C83  1  0.50345000  0.03462000  0.50791000  1.0
  C  C84  1  0.22875000  0.59516000  0.47714000  1.0
  C  C85  1  0.78665000  0.40288000  0.46465000  1.0
  C  C86  1  0.08007000  0.70768000  0.46091000  1.0
  C  C87  1  0.93702000  0.29373000  0.43858000  1.0
  C  C88  1  0.17268000  0.68268000  0.47568000  1.0
  C  C89  1  0.84246000  0.31640000  0.45402000  1.0
  C  C90  1  0.19299000  0.53326000  0.45941000  1.0
  C  C91  1  0.82445000  0.46692000  0.45875000  1.0
  C  C92  1  0.09851000  0.55517000  0.44740000  1.0
  C  C93  1  0.91989000  0.44703000  0.44451000  1.0
  C  C94  1  0.04033000  0.64332000  0.45141000  1.0
  C  C95  1  0.97779000  0.35935000  0.43539000  1.0
  C  C96  1  0.05786000  0.49018000  0.43835000  1.0
  C  C97  1  0.96077000  0.51307000  0.44283000  1.0
  C  C98  1  0.62574000  0.67667000  0.38075000  1.0
  C  C99  1  0.57974000  0.69072000  0.30460000  1.0
  C  C100  1  0.39005000  0.32132000  0.62715000  1.0
  C  C101  1  0.28801000  0.35606000  0.60790000  1.0
  C  C102  1  0.62912000  0.85450000  0.39306000  1.0
  C  C103  1  0.71508000  0.85097000  0.43363000  1.0
  C  C104  1  0.40698000  0.13744000  0.63446000  1.0
  C  C105  1  0.47534000  0.09553000  0.69622000  1.0
  C  C106  1  0.98464000  0.83257000  0.38758000  1.0
  C  C107  1  0.95468000  0.14178000  0.42459000  1.0
  N  N108  1  0.51219000  0.70827000  0.48704000  1.0
  N  N109  1  0.49516000  0.28900000  0.51479000  1.0
  N  N110  1  0.02326000  0.79524000  0.45985000  1.0
  N  N111  1  0.99310000  0.20881000  0.42922000  1.0
  O  O112  1  0.50254000  0.57792000  0.61125000  1.0
  O  O113  1  0.50908000  0.41817000  0.38827000  1.0
  O  O114  1  0.51516000  0.43790000  0.61575000  1.0
  O  O115  1  0.48551000  0.56088000  0.38364000  1.0
  O  O116  1  0.36139000  0.62677000  0.50397000  1.0
  O  O117  1  0.65127000  0.36815000  0.49178000  1.0
  O  O118  1  0.37149000  0.48751000  0.50304000  1.0
  O  O119  1  0.63914000  0.50796000  0.48560000  1.0
