# generated using pymatgen
data_KH15C19N2
_symmetry_space_group_name_H-M   'P 1'
_cell_length_a   6.94695000
_cell_length_b   9.84698000
_cell_length_c   12.50867556
_cell_angle_alpha   66.86287078
_cell_angle_beta   89.99954240
_cell_angle_gamma   89.99980000
_symmetry_Int_Tables_number   1
_chemical_formula_structural   KH15C19N2
_chemical_formula_sum   'K2 H30 C38 N4'
_cell_volume   786.85002463
_cell_formula_units_Z   2
loop_
 _symmetry_equiv_pos_site_id
 _symmetry_equiv_pos_as_xyz
  1  'x, y, z'
loop_
 _atom_site_type_symbol
 _atom_site_label
 _atom_site_symmetry_multiplicity
 _atom_site_fract_x
 _atom_site_fract_y
 _atom_site_fract_z
 _atom_site_occupancy
  K  K0  1  0.61942000  0.89479000  0.99980000  1.0
  K  K1  1  0.11942000  0.10520000  0.00020000  1.0
  H  H2  1  0.49470000  0.53545000  0.55089000  1.0
  H  H3  1  0.99470000  0.46457000  0.44910000  1.0
  H  H4  1  0.49546000  0.08623000  0.44932000  1.0
  H  H5  1  0.99547000  0.91378000  0.55068000  1.0
  H  H6  1  0.30728000  0.77170000  0.49061000  1.0
  H  H7  1  0.80726000  0.22833000  0.50937000  1.0
  H  H8  1  0.30793000  0.26205000  0.50983000  1.0
  H  H9  1  0.80794000  0.73796000  0.49018000  1.0
  H  H10  1  0.19412000  0.89774000  0.28879000  1.0
  H  H11  1  0.69411000  0.10227000  0.71120000  1.0
  H  H12  1  0.19417000  0.18610000  0.71155000  1.0
  H  H13  1  0.69418000  0.81389000  0.28846000  1.0
  H  H14  1  0.44696000  0.55495000  0.20143000  1.0
  H  H15  1  0.94697000  0.44505000  0.79857000  1.0
  H  H16  1  0.44634000  0.75597000  0.79839000  1.0
  H  H17  1  0.94634000  0.24404000  0.20160000  1.0
  H  H18  1  0.56722000  0.43035000  0.40460000  1.0
  H  H19  1  0.06722000  0.56965000  0.59540000  1.0
  H  H20  1  0.56700000  0.83463000  0.59527000  1.0
  H  H21  1  0.06701000  0.16538000  0.40472000  1.0
  H  H22  1  0.67793000  0.49177000  0.00017000  1.0
  H  H23  1  0.17794000  0.50822000  0.99984000  1.0
  H  H24  1  0.78875000  0.47428000  0.18378000  1.0
  H  H25  1  0.28876000  0.52570000  0.81623000  1.0
  H  H26  1  0.78818000  0.65791000  0.81651000  1.0
  H  H27  1  0.28818000  0.34209000  0.18349000  1.0
  H  H28  1  0.02653000  0.60596000  0.22844000  1.0
  H  H29  1  0.52653000  0.39403000  0.77156000  1.0
  H  H30  1  0.02615000  0.83409000  0.77178000  1.0
  H  H31  1  0.52614000  0.16590000  0.22822000  1.0
  C  C32  1  0.44304000  0.59119000  0.46190000  1.0
  C  C33  1  0.94303000  0.40883000  0.53809000  1.0
  C  C34  1  0.44340000  0.05287000  0.53824000  1.0
  C  C35  1  0.94341000  0.94715000  0.46175000  1.0
  C  C36  1  0.33869000  0.72270000  0.42808000  1.0
  C  C37  1  0.83869000  0.27731000  0.57191000  1.0
  C  C38  1  0.33908000  0.15049000  0.57224000  1.0
  C  C39  1  0.83909000  0.84951000  0.42777000  1.0
  C  C40  1  0.27446000  0.79475000  0.31379000  1.0
  C  C41  1  0.77445000  0.20526000  0.68620000  1.0
  C  C42  1  0.27452000  0.10817000  0.68646000  1.0
  C  C43  1  0.77454000  0.89184000  0.31354000  1.0
  C  C44  1  0.31114000  0.73446000  0.23094000  1.0
  C  C45  1  0.81114000  0.26554000  0.76906000  1.0
  C  C46  1  0.31093000  0.96500000  0.76917000  1.0
  C  C47  1  0.81094000  0.03500000  0.23083000  1.0
  C  C48  1  0.41644000  0.60116000  0.26592000  1.0
  C  C49  1  0.91644000  0.39884000  0.73408000  1.0
  C  C50  1  0.41610000  0.86672000  0.73403000  1.0
  C  C51  1  0.91610000  0.13327000  0.26597000  1.0
  C  C52  1  0.48296000  0.53155000  0.37963000  1.0
  C  C53  1  0.98295000  0.46847000  0.62036000  1.0
  C  C54  1  0.48289000  0.91089000  0.62033000  1.0
  C  C55  1  0.98290000  0.08912000  0.37966000  1.0
  C  C56  1  0.79303000  0.56670000  0.00017000  1.0
  C  C57  1  0.29303000  0.43329000  0.99984000  1.0
  C  C58  1  0.86023000  0.55707000  0.10834000  1.0
  C  C59  1  0.36023000  0.44292000  0.89167000  1.0
  C  C60  1  0.85993000  0.66518000  0.89196000  1.0
  C  C61  1  0.35992000  0.33479000  0.10805000  1.0
  C  C62  1  0.00346000  0.63715000  0.13541000  1.0
  C  C63  1  0.50345000  0.36285000  0.86459000  1.0
  C  C64  1  0.00317000  0.77231000  0.86482000  1.0
  C  C65  1  0.50317000  0.22768000  0.13518000  1.0
  C  C66  1  0.13020000  0.75227000  0.06540000  1.0
  C  C67  1  0.63021000  0.24773000  0.93460000  1.0
  C  C68  1  0.13017000  0.81743000  0.93476000  1.0
  C  C69  1  0.63017000  0.18255000  0.06524000  1.0
  N  N70  1  0.26218000  0.80853000  0.11336000  1.0
  N  N71  1  0.76219000  0.19147000  0.88663000  1.0
  N  N72  1  0.26213000  0.92161000  0.88676000  1.0
  N  N73  1  0.76214000  0.07839000  0.11324000  1.0
