# generated using pymatgen
data_ZnH30C48N5O
_symmetry_space_group_name_H-M   'P 1'
_cell_length_a   17.64040000
_cell_length_b   17.64020000
_cell_length_c   18.32706875
_cell_angle_alpha   118.76744277
_cell_angle_beta   118.76839149
_cell_angle_gamma   90.00040000
_symmetry_Int_Tables_number   1
_chemical_formula_structural   ZnH30C48N5O
_chemical_formula_sum   'Zn4 H120 C192 N20 O4'
_cell_volume   4178.28991554
_cell_formula_units_Z   4
loop_
 _symmetry_equiv_pos_site_id
 _symmetry_equiv_pos_as_xyz
  1  'x, y, z'
loop_
 _atom_site_type_symbol
 _atom_site_label
 _atom_site_symmetry_multiplicity
 _atom_site_fract_x
 _atom_site_fract_y
 _atom_site_fract_z
 _atom_site_occupancy
  Zn  Zn0  1  0.68187000  0.38293000  0.36472000  1.0
  Zn  Zn1  1  0.13294000  0.93284000  0.86471000  1.0
  Zn  Zn2  1  0.68285000  0.98179000  0.36472000  1.0
  Zn  Zn3  1  0.73178000  0.93187000  0.86472000  1.0
  H  H4  1  0.95732000  0.39332000  0.67069000  1.0
  H  H5  1  0.14333000  0.96336000  0.17068000  1.0
  H  H6  1  0.71337000  0.27737000  0.67069000  1.0
  H  H7  1  0.02737000  0.20732000  0.17069000  1.0
  H  H8  1  0.85605000  0.47832000  0.73705000  1.0
  H  H9  1  0.22833000  0.13099000  0.23704000  1.0
  H  H10  1  0.88101000  0.25873000  0.73705000  1.0
  H  H11  1  0.00873000  0.10605000  0.23706000  1.0
  H  H12  1  0.58150000  0.60599000  0.59717000  1.0
  H  H13  1  0.35599000  0.26567000  0.09717000  1.0
  H  H14  1  0.01567000  0.99117000  0.59717000  1.0
  H  H15  1  0.74117000  0.83150000  0.09717000  1.0
  H  H16  1  0.48186000  0.60055000  0.42791000  1.0
  H  H17  1  0.35056000  0.19605000  0.92791000  1.0
  H  H18  1  0.94605000  0.82735000  0.42791000  1.0
  H  H19  1  0.57735000  0.73186000  0.92791000  1.0
  H  H20  1  0.43377000  0.40979000  0.07085000  1.0
  H  H21  1  0.15979000  0.88708000  0.57085000  1.0
  H  H22  1  0.63708000  0.66107000  0.07085000  1.0
  H  H23  1  0.41106000  0.68376000  0.57084000  1.0
  H  H24  1  0.51037000  0.29179000  0.99092000  1.0
  H  H25  1  0.04178000  0.73056000  0.49091000  1.0
  H  H26  1  0.48056000  0.69913000  0.99092000  1.0
  H  H27  1  0.44913000  0.76036000  0.49091000  1.0
  H  H28  1  0.80152000  0.18835000  0.13794000  1.0
  H  H29  1  0.93834000  0.58642000  0.63793000  1.0
  H  H30  1  0.33643000  0.94960000  0.13794000  1.0
  H  H31  1  0.69959000  0.05152000  0.63794000  1.0
  H  H32  1  0.92803000  0.22902000  0.32058000  1.0
  H  H33  1  0.97901000  0.64254000  0.82056000  1.0
  H  H34  1  0.39255000  0.09156000  0.32058000  1.0
  H  H35  1  0.84156000  0.17804000  0.82059000  1.0
  H  H36  1  0.65071000  0.40975000  0.64911000  1.0
  H  H37  1  0.15976000  0.24838000  0.14911000  1.0
  H  H38  1  0.99839000  0.23937000  0.64912000  1.0
  H  H39  1  0.98936000  0.90073000  0.14912000  1.0
  H  H40  1  0.65461000  0.47438000  0.80573000  1.0
  H  H41  1  0.22438000  0.40111000  0.30572000  1.0
  H  H42  1  0.15112000  0.33136000  0.80575000  1.0
  H  H43  1  0.08137000  0.90464000  0.30576000  1.0
  H  H44  1  0.71521000  0.64212000  0.92929000  1.0
  H  H45  1  0.39212000  0.46407000  0.42928000  1.0
  H  H46  1  0.21407000  0.28717000  0.92929000  1.0
  H  H47  1  0.03717000  0.96523000  0.42931000  1.0
  H  H48  1  0.77339000  0.74338000  0.89749000  1.0
  H  H49  1  0.49338000  0.37409000  0.39748000  1.0
  H  H50  1  0.12410000  0.15410000  0.89749000  1.0
  H  H51  1  0.90411000  0.02340000  0.39750000  1.0
  H  H52  1  0.33650000  0.39962000  0.17329000  1.0
  H  H53  1  0.14962000  0.08680000  0.67329000  1.0
  H  H54  1  0.83679000  0.77368000  0.17329000  1.0
  H  H55  1  0.52367000  0.58650000  0.67330000  1.0
  H  H56  1  0.21016000  0.45592000  0.10027000  1.0
  H  H57  1  0.20593000  0.14012000  0.60027000  1.0
  H  H58  1  0.89012000  0.64435000  0.10028000  1.0
  H  H59  1  0.39434000  0.46016000  0.60027000  1.0
  H  H60  1  0.24278000  0.60790000  0.12744000  1.0
  H  H61  1  0.35791000  0.13468000  0.62745000  1.0
  H  H62  1  0.88468000  0.51956000  0.12746000  1.0
  H  H63  1  0.26954000  0.49277000  0.62744000  1.0
  H  H64  1  0.40331000  0.70367000  0.23009000  1.0
  H  H65  1  0.45367000  0.07678000  0.73009000  1.0
  H  H66  1  0.82678000  0.52644000  0.23010000  1.0
  H  H67  1  0.27642000  0.65331000  0.73010000  1.0
  H  H68  1  0.52938000  0.64611000  0.30017000  1.0
  H  H69  1  0.39610000  0.02078000  0.80015000  1.0
  H  H70  1  0.77079000  0.65407000  0.30017000  1.0
  H  H71  1  0.40406000  0.77938000  0.80017000  1.0
  H  H72  1  0.61025000  0.08850000  0.00098000  1.0
  H  H73  1  0.83849000  0.64072000  0.50097000  1.0
  H  H74  1  0.39073000  0.91249000  0.00097000  1.0
  H  H75  1  0.66249000  0.86025000  0.50098000  1.0
  H  H76  1  0.59199000  0.01281000  0.83629000  1.0
  H  H77  1  0.76281000  0.49429000  0.33629000  1.0
  H  H78  1  0.24430000  0.82348000  0.83628000  1.0
  H  H79  1  0.57349000  0.84199000  0.33630000  1.0
  H  H80  1  0.62453000  0.10570000  0.78100000  1.0
  H  H81  1  0.85570000  0.40647000  0.28099000  1.0
  H  H82  1  0.15648000  0.67529000  0.78100000  1.0
  H  H83  1  0.42529000  0.87453000  0.28100000  1.0
  H  H84  1  0.67378000  0.27399000  0.89001000  1.0
  H  H85  1  0.02399000  0.46623000  0.39001000  1.0
  H  H86  1  0.21624000  0.61603000  0.89002000  1.0
  H  H87  1  0.36602000  0.92378000  0.39001000  1.0
  H  H88  1  0.68960000  0.34934000  0.05355000  1.0
  H  H89  1  0.09933000  0.61395000  0.55354000  1.0
  H  H90  1  0.36396000  0.70423000  0.05356000  1.0
  H  H91  1  0.45422000  0.93959000  0.55355000  1.0
  H  H92  1  0.04336000  0.46602000  0.60777000  1.0
  H  H93  1  0.21601000  0.81439000  0.10775000  1.0
  H  H94  1  0.56441000  0.14174000  0.60776000  1.0
  H  H95  1  0.89173000  0.29337000  0.10776000  1.0
  H  H96  1  0.19614000  0.45007000  0.69487000  1.0
  H  H97  1  0.20007000  0.74873000  0.19487000  1.0
  H  H98  1  0.49873000  0.24479000  0.69487000  1.0
  H  H99  1  0.99480000  0.44615000  0.19487000  1.0
  H  H100  1  0.21437000  0.29650000  0.64921000  1.0
  H  H101  1  0.04650000  0.68485000  0.14922000  1.0
  H  H102  1  0.43484000  0.35271000  0.64922000  1.0
  H  H103  1  0.10272000  0.46438000  0.14923000  1.0
  H  H104  1  0.07795000  0.15924000  0.51529000  1.0
  H  H105  1  0.90923000  0.68734000  0.01530000  1.0
  H  H106  1  0.43735000  0.35606000  0.51531000  1.0
  H  H107  1  0.10606000  0.32796000  0.01531000  1.0
  H  H108  1  0.92617000  0.17649000  0.43253000  1.0
  H  H109  1  0.92648000  0.75635000  0.93252000  1.0
  H  H110  1  0.50635000  0.25604000  0.43253000  1.0
  H  H111  1  0.00604000  0.17618000  0.93254000  1.0
  H  H112  1  0.92316000  0.92316000  0.84632000  1.0
  H  H113  1  0.67315000  0.17315000  0.34630000  1.0
  H  H114  1  0.70953000  0.68714000  0.56746000  1.0
  H  H115  1  0.43713000  0.10793000  0.06745000  1.0
  H  H116  1  0.85793000  0.88032000  0.56746000  1.0
  H  H117  1  0.63032000  0.95953000  0.06745000  1.0
  H  H118  1  0.73784000  0.73783000  0.47567000  1.0
  H  H119  1  0.48783000  0.98783000  0.97566000  1.0
  H  H120  1  0.78048000  0.64545000  0.67049000  1.0
  H  H121  1  0.39546000  0.14000000  0.17049000  1.0
  H  H122  1  0.89000000  0.02504000  0.67049000  1.0
  H  H123  1  0.77503000  0.03048000  0.17048000  1.0
  C  C124  1  0.85457000  0.38445000  0.52941000  1.0
  C  C125  1  0.13446000  0.92482000  0.02940000  1.0
  C  C126  1  0.67483000  0.14495000  0.52941000  1.0
  C  C127  1  0.89495000  0.10458000  0.02941000  1.0
  C  C128  1  0.77248000  0.45541000  0.58449000  1.0
  C  C129  1  0.20541000  0.06199000  0.08448000  1.0
  C  C130  1  0.81201000  0.12908000  0.58450000  1.0
  C  C131  1  0.87908000  0.02250000  0.08450000  1.0
  C  C132  1  0.64496000  0.51643000  0.51972000  1.0
  C  C133  1  0.26644000  0.12475000  0.01972000  1.0
  C  C134  1  0.87476000  0.00330000  0.51973000  1.0
  C  C135  1  0.75329000  0.89496000  0.01972000  1.0
  C  C136  1  0.56186000  0.51150000  0.38008000  1.0
  C  C137  1  0.26151000  0.06822000  0.88008000  1.0
  C  C138  1  0.81822000  0.86858000  0.38008000  1.0
  C  C139  1  0.61858000  0.81185000  0.88008000  1.0
  C  C140  1  0.53576000  0.41741000  0.21106000  1.0
  C  C141  1  0.16742000  0.92530000  0.71105000  1.0
  C  C142  1  0.67531000  0.79365000  0.21106000  1.0
  C  C143  1  0.54364000  0.78575000  0.71105000  1.0
  C  C144  1  0.59943000  0.32142000  0.14594000  1.0
  C  C145  1  0.07142000  0.79650000  0.64593000  1.0
  C  C146  1  0.54651000  0.82452000  0.14593000  1.0
  C  C147  1  0.57451000  0.84942000  0.64593000  1.0
  C  C148  1  0.73062000  0.26493000  0.21220000  1.0
  C  C149  1  0.01493000  0.73158000  0.71219000  1.0
  C  C150  1  0.48158000  0.94727000  0.21220000  1.0
  C  C151  1  0.69726000  0.98062000  0.71220000  1.0
  C  C152  1  0.83404000  0.29660000  0.36239000  1.0
  C  C153  1  0.04660000  0.77834000  0.86238000  1.0
  C  C154  1  0.52834000  0.06579000  0.36239000  1.0
  C  C155  1  0.81578000  0.08405000  0.86239000  1.0
  C  C156  1  0.89716000  0.40876000  0.63109000  1.0
  C  C157  1  0.15877000  0.98392000  0.13108000  1.0
  C  C158  1  0.73393000  0.22232000  0.63109000  1.0
  C  C159  1  0.97232000  0.14716000  0.13109000  1.0
  C  C160  1  0.84550000  0.45139000  0.66460000  1.0
  C  C161  1  0.20140000  0.06909000  0.16460000  1.0
  C  C162  1  0.81911000  0.21321000  0.66461000  1.0
  C  C163  1  0.96321000  0.09551000  0.16461000  1.0
  C  C164  1  0.58459000  0.57016000  0.53166000  1.0
  C  C165  1  0.32017000  0.19706000  0.03166000  1.0
  C  C166  1  0.94707000  0.96149000  0.53167000  1.0
  C  C167  1  0.71149000  0.83459000  0.03166000  1.0
  C  C168  1  0.53422000  0.56820000  0.44577000  1.0
  C  C169  1  0.31820000  0.16154000  0.94577000  1.0
  C  C170  1  0.91154000  0.87757000  0.44577000  1.0
  C  C171  1  0.62757000  0.78422000  0.94577000  1.0
  C  C172  1  0.48901000  0.38757000  0.10748000  1.0
  C  C173  1  0.13757000  0.86848000  0.60748000  1.0
  C  C174  1  0.61847000  0.71992000  0.10748000  1.0
  C  C175  1  0.46991000  0.73900000  0.60748000  1.0
  C  C176  1  0.52809000  0.32804000  0.06712000  1.0
  C  C177  1  0.07805000  0.78903000  0.56711000  1.0
  C  C178  1  0.53902000  0.73908000  0.06711000  1.0
  C  C179  1  0.48907000  0.77808000  0.56711000  1.0
  C  C180  1  0.80029000  0.22487000  0.20466000  1.0
  C  C181  1  0.97487000  0.65436000  0.70465000  1.0
  C  C182  1  0.40437000  0.97979000  0.20466000  1.0
  C  C183  1  0.72978000  0.05030000  0.70466000  1.0
  C  C184  1  0.86473000  0.24559000  0.29779000  1.0
  C  C185  1  0.99559000  0.68305000  0.79778000  1.0
  C  C186  1  0.43307000  0.05220000  0.29780000  1.0
  C  C187  1  0.80219000  0.11474000  0.79779000  1.0
  C  C188  1  0.70805000  0.50042000  0.59143000  1.0
  C  C189  1  0.25043000  0.13336000  0.09142000  1.0
  C  C190  1  0.88337000  0.09100000  0.59143000  1.0
  C  C191  1  0.84100000  0.95806000  0.09143000  1.0
  C  C192  1  0.51728000  0.48174000  0.27928000  1.0
  C  C193  1  0.23174000  0.01200000  0.77928000  1.0
  C  C194  1  0.76200000  0.79755000  0.27928000  1.0
  C  C195  1  0.54754000  0.76728000  0.77928000  1.0
  C  C196  1  0.65896000  0.26995000  0.13561000  1.0
  C  C197  1  0.01994000  0.72664000  0.63560000  1.0
  C  C198  1  0.47665000  0.86567000  0.13561000  1.0
  C  C199  1  0.61567000  0.90897000  0.63561000  1.0
  C  C200  1  0.88351000  0.33407000  0.46579000  1.0
  C  C201  1  0.08408000  0.83227000  0.96579000  1.0
  C  C202  1  0.58228000  0.13172000  0.46580000  1.0
  C  C203  1  0.88172000  0.13352000  0.96580000  1.0
  C  C204  1  0.71039000  0.53868000  0.68516000  1.0
  C  C205  1  0.28869000  0.22477000  0.18516000  1.0
  C  C206  1  0.97477000  0.14648000  0.68517000  1.0
  C  C207  1  0.89648000  0.96039000  0.18517000  1.0
  C  C208  1  0.67853000  0.48258000  0.70453000  1.0
  C  C209  1  0.23259000  0.27599000  0.20453000  1.0
  C  C210  1  0.02600000  0.22195000  0.70454000  1.0
  C  C211  1  0.97195000  0.92854000  0.20454000  1.0
  C  C212  1  0.68054000  0.51909000  0.79227000  1.0
  C  C213  1  0.26909000  0.36172000  0.29226000  1.0
  C  C214  1  0.11173000  0.27319000  0.79228000  1.0
  C  C215  1  0.02319000  0.93056000  0.29228000  1.0
  C  C216  1  0.71446000  0.61275000  0.86121000  1.0
  C  C217  1  0.36274000  0.39674000  0.36119000  1.0
  C  C218  1  0.14674000  0.24846000  0.86121000  1.0
  C  C219  1  0.99846000  0.96447000  0.36121000  1.0
  C  C220  1  0.74714000  0.67044000  0.84407000  1.0
  C  C221  1  0.42044000  0.34692000  0.34406000  1.0
  C  C222  1  0.09693000  0.17363000  0.84408000  1.0
  C  C223  1  0.92363000  0.99715000  0.34408000  1.0
  C  C224  1  0.74584000  0.63335000  0.75641000  1.0
  C  C225  1  0.38335000  0.26056000  0.25640000  1.0
  C  C226  1  0.01057000  0.12306000  0.75642000  1.0
  C  C227  1  0.87305000  0.99585000  0.25641000  1.0
  C  C228  1  0.44158000  0.51808000  0.23978000  1.0
  C  C229  1  0.26808000  0.04820000  0.73978000  1.0
  C  C230  1  0.79821000  0.72171000  0.23979000  1.0
  C  C231  1  0.47170000  0.69158000  0.73979000  1.0
  C  C232  1  0.35107000  0.46560000  0.18409000  1.0
  C  C233  1  0.21561000  0.08302000  0.68410000  1.0
  C  C234  1  0.83302000  0.71851000  0.18410000  1.0
  C  C235  1  0.46850000  0.60108000  0.68410000  1.0
  C  C236  1  0.28005000  0.49775000  0.14391000  1.0
  C  C237  1  0.24777000  0.11387000  0.64392000  1.0
  C  C238  1  0.86387000  0.64617000  0.14392000  1.0
  C  C239  1  0.39616000  0.53005000  0.64392000  1.0
  C  C240  1  0.29834000  0.58307000  0.15938000  1.0
  C  C241  1  0.33309000  0.11105000  0.65939000  1.0
  C  C242  1  0.86105000  0.57632000  0.15939000  1.0
  C  C243  1  0.32631000  0.54834000  0.65939000  1.0
  C  C244  1  0.38817000  0.63646000  0.21621000  1.0
  C  C245  1  0.38646000  0.07804000  0.71621000  1.0
  C  C246  1  0.82805000  0.57976000  0.21622000  1.0
  C  C247  1  0.32975000  0.63817000  0.71622000  1.0
  C  C248  1  0.45931000  0.60424000  0.25622000  1.0
  C  C249  1  0.35425000  0.04691000  0.75622000  1.0
  C  C250  1  0.79692000  0.65199000  0.25623000  1.0
  C  C251  1  0.40198000  0.70931000  0.75622000  1.0
  C  C252  1  0.65002000  0.22384000  0.03781000  1.0
  C  C253  1  0.97384000  0.63779000  0.53781000  1.0
  C  C254  1  0.38779000  0.81398000  0.03782000  1.0
  C  C255  1  0.56398000  0.90003000  0.53782000  1.0
  C  C256  1  0.62360000  0.12896000  0.97621000  1.0
  C  C257  1  0.87895000  0.60261000  0.47620000  1.0
  C  C258  1  0.35261000  0.84726000  0.97621000  1.0
  C  C259  1  0.59726000  0.87360000  0.47621000  1.0
  C  C260  1  0.61358000  0.08670000  0.88396000  1.0
  C  C261  1  0.83669000  0.52038000  0.38395000  1.0
  C  C262  1  0.27038000  0.79726000  0.88395000  1.0
  C  C263  1  0.54726000  0.86358000  0.38396000  1.0
  C  C264  1  0.63113000  0.13868000  0.85248000  1.0
  C  C265  1  0.88867000  0.47134000  0.35247000  1.0
  C  C266  1  0.22135000  0.71380000  0.85248000  1.0
  C  C267  1  0.46381000  0.88114000  0.35249000  1.0
  C  C268  1  0.65880000  0.23314000  0.91372000  1.0
  C  C269  1  0.98313000  0.50492000  0.41372000  1.0
  C  C270  1  0.25493000  0.68060000  0.91373000  1.0
  C  C271  1  0.43059000  0.90880000  0.41373000  1.0
  C  C272  1  0.66795000  0.27547000  0.00562000  1.0
  C  C273  1  0.02546000  0.58767000  0.50561000  1.0
  C  C274  1  0.33768000  0.73016000  0.00563000  1.0
  C  C275  1  0.48016000  0.91795000  0.50563000  1.0
  C  C276  1  0.97448000  0.32219000  0.51374000  1.0
  C  C277  1  0.07218000  0.78925000  0.01373000  1.0
  C  C278  1  0.53926000  0.19155000  0.51374000  1.0
  C  C279  1  0.94155000  0.22449000  0.01374000  1.0
  C  C280  1  0.05147000  0.39896000  0.58831000  1.0
  C  C281  1  0.14895000  0.78682000  0.08830000  1.0
  C  C282  1  0.53684000  0.18935000  0.58831000  1.0
  C  C283  1  0.93935000  0.30148000  0.08831000  1.0
  C  C284  1  0.13721000  0.38974000  0.63663000  1.0
  C  C285  1  0.13974000  0.74941000  0.13662000  1.0
  C  C286  1  0.49942000  0.24688000  0.63663000  1.0
  C  C287  1  0.99688000  0.38722000  0.13663000  1.0
  C  C288  1  0.14749000  0.30362000  0.61071000  1.0
  C  C289  1  0.05362000  0.71322000  0.11072000  1.0
  C  C290  1  0.46322000  0.30709000  0.61072000  1.0
  C  C291  1  0.05709000  0.39750000  0.11072000  1.0
  C  C292  1  0.07150000  0.22695000  0.53608000  1.0
  C  C293  1  0.97695000  0.71458000  0.03609000  1.0
  C  C294  1  0.46458000  0.30914000  0.53609000  1.0
  C  C295  1  0.05914000  0.32151000  0.03610000  1.0
  C  C296  1  0.98568000  0.23616000  0.48825000  1.0
  C  C297  1  0.98615000  0.75256000  0.98824000  1.0
  C  C298  1  0.50257000  0.25209000  0.48825000  1.0
  C  C299  1  0.00209000  0.23568000  0.98826000  1.0
  C  C300  1  0.80141000  0.77454000  0.77191000  1.0
  C  C301  1  0.52453000  0.22049000  0.27190000  1.0
  C  C302  1  0.97050000  0.99737000  0.77192000  1.0
  C  C303  1  0.74737000  0.05142000  0.27191000  1.0
  C  C304  1  0.81621000  0.80128000  0.71313000  1.0
  C  C305  1  0.55128000  0.14691000  0.21312000  1.0
  C  C306  1  0.89692000  0.91184000  0.71313000  1.0
  C  C307  1  0.66184000  0.06621000  0.21312000  1.0
  C  C308  1  0.88261000  0.88260000  0.76521000  1.0
  C  C309  1  0.63260000  0.13260000  0.26520000  1.0
  C  C310  1  0.76371000  0.74913000  0.60861000  1.0
  C  C311  1  0.49913000  0.09490000  0.10860000  1.0
  C  C312  1  0.84490000  0.85948000  0.60861000  1.0
  C  C313  1  0.60947000  0.01371000  0.10860000  1.0
  C  C314  1  0.77844000  0.77843000  0.55687000  1.0
  C  C315  1  0.52843000  0.02843000  0.05686000  1.0
  N  N316  1  0.77951000  0.41388000  0.50358000  1.0
  N  N317  1  0.16388000  0.97406000  0.00357000  1.0
  N  N318  1  0.72407000  0.08970000  0.50358000  1.0
  N  N319  1  0.83969000  0.02952000  0.00358000  1.0
  N  N320  1  0.63132000  0.48383000  0.42815000  1.0
  N  N321  1  0.23383000  0.04682000  0.92814000  1.0
  N  N322  1  0.79682000  0.94432000  0.42815000  1.0
  N  N323  1  0.69432000  0.88132000  0.92814000  1.0
  N  N324  1  0.60169000  0.37523000  0.23218000  1.0
  N  N325  1  0.12524000  0.88049000  0.73218000  1.0
  N  N326  1  0.63049000  0.85696000  0.23218000  1.0
  N  N327  1  0.60695000  0.85169000  0.73218000  1.0
  N  N328  1  0.75176000  0.30622000  0.30813000  1.0
  N  N329  1  0.05622000  0.80637000  0.80812000  1.0
  N  N330  1  0.55637000  0.00191000  0.30813000  1.0
  N  N331  1  0.75191000  0.00176000  0.80813000  1.0
  N  N332  1  0.77856000  0.68429000  0.73210000  1.0
  N  N333  1  0.43429000  0.20352000  0.23209000  1.0
  N  N334  1  0.95353000  0.04781000  0.73210000  1.0
  N  N335  1  0.79780000  0.02857000  0.23210000  1.0
  O  O336  1  0.80994000  0.83209000  0.85214000  1.0
  O  O337  1  0.58208000  0.29220000  0.35212000  1.0
  O  O338  1  0.04221000  0.02004000  0.85214000  1.0
  O  O339  1  0.77004000  0.05993000  0.35214000  1.0
