# generated using pymatgen
data_CuH18(C8O5)2
_symmetry_space_group_name_H-M   'P 1'
_cell_length_a   3.75497000
_cell_length_b   14.53240000
_cell_length_c   14.62030000
_cell_angle_alpha   95.67230000
_cell_angle_beta   90.00000000
_cell_angle_gamma   90.00020000
_symmetry_Int_Tables_number   1
_chemical_formula_structural   CuH18(C8O5)2
_chemical_formula_sum   'Cu2 H36 C32 O20'
_cell_volume   793.90463927
_cell_formula_units_Z   2
loop_
 _symmetry_equiv_pos_site_id
 _symmetry_equiv_pos_as_xyz
  1  'x, y, z'
loop_
 _atom_site_type_symbol
 _atom_site_label
 _atom_site_symmetry_multiplicity
 _atom_site_fract_x
 _atom_site_fract_y
 _atom_site_fract_z
 _atom_site_occupancy
  Cu  Cu0  1  0.99999000  0.00000000  0.00000000  1.0
  Cu  Cu1  1  0.50000000  0.50000000  0.00000000  1.0
  H  H2  1  0.50742000  0.02106000  0.87692000  1.0
  H  H3  1  0.00743000  0.47894000  0.12308000  1.0
  H  H4  1  0.49257000  0.97894000  0.12308000  1.0
  H  H5  1  0.99258000  0.52106000  0.87692000  1.0
  H  H6  1  0.67094000  0.12305000  0.91732000  1.0
  H  H7  1  0.17095000  0.37695000  0.08268000  1.0
  H  H8  1  0.32906000  0.87694000  0.08268000  1.0
  H  H9  1  0.82906000  0.62305000  0.91732000  1.0
  H  H10  1  0.18248000  0.20851000  0.08518000  1.0
  H  H11  1  0.68248000  0.29149000  0.91482000  1.0
  H  H12  1  0.81753000  0.79149000  0.91482000  1.0
  H  H13  1  0.31752000  0.70851000  0.08518000  1.0
  H  H14  1  0.37288000  0.40373000  0.24273000  1.0
  H  H15  1  0.87289000  0.09627000  0.75727000  1.0
  H  H16  1  0.62714000  0.59626000  0.75727000  1.0
  H  H17  1  0.12712000  0.90373000  0.24273000  1.0
  H  H18  1  0.83937000  0.27675000  0.46040000  1.0
  H  H19  1  0.33937000  0.22325000  0.53960000  1.0
  H  H20  1  0.16064000  0.72325000  0.53960000  1.0
  H  H21  1  0.66063000  0.77675000  0.46040000  1.0
  H  H22  1  0.70659000  0.13920000  0.35016000  1.0
  H  H23  1  0.20661000  0.36080000  0.64984000  1.0
  H  H24  1  0.29341000  0.86080000  0.64984000  1.0
  H  H25  1  0.79340000  0.63920000  0.35016000  1.0
  H  H26  1  0.60185000  0.48933000  0.36919000  1.0
  H  H27  1  0.10185000  0.01067000  0.63081000  1.0
  H  H28  1  0.39815000  0.51067000  0.63081000  1.0
  H  H29  1  0.89814000  0.98933000  0.36919000  1.0
  H  H30  1  0.31954000  0.55538000  0.45017000  1.0
  H  H31  1  0.81954000  0.94462000  0.54983000  1.0
  H  H32  1  0.68045000  0.44462000  0.54983000  1.0
  H  H33  1  0.18045000  0.05538000  0.45017000  1.0
  H  H34  1  0.17416000  0.52647000  0.33333333  1.0
  H  H35  1  0.67416000  0.97354000  0.66660000  1.0
  H  H36  1  0.82584000  0.47354000  0.66659000  1.0
  H  H37  1  0.32583000  0.02647000  0.33333333  1.0
  C  C38  1  0.88195000  0.10998000  0.17188000  1.0
  C  C39  1  0.38197000  0.39002000  0.82812000  1.0
  C  C40  1  0.11805000  0.89002000  0.82812000  1.0
  C  C41  1  0.61804000  0.60998000  0.17188000  1.0
  C  C42  1  0.96537000  0.19222000  0.23538000  1.0
  C  C43  1  0.46540000  0.30779000  0.76462000  1.0
  C  C44  1  0.03462000  0.80778000  0.76462000  1.0
  C  C45  1  0.53461000  0.69221000  0.23538000  1.0
  C  C46  1  0.14986000  0.26911000  0.20633000  1.0
  C  C47  1  0.64988000  0.23089000  0.79367000  1.0
  C  C48  1  0.85014000  0.73089000  0.79366000  1.0
  C  C49  1  0.35013000  0.76911000  0.20633000  1.0
  C  C50  1  0.22287000  0.34696000  0.26716000  1.0
  C  C51  1  0.72288000  0.15304000  0.73284000  1.0
  C  C52  1  0.77714000  0.65303000  0.73284000  1.0
  C  C53  1  0.27713000  0.84696000  0.26716000  1.0
  C  C54  1  0.11251000  0.34862000  0.35851000  1.0
  C  C55  1  0.61252000  0.15138000  0.64150000  1.0
  C  C56  1  0.88750000  0.65138000  0.64149000  1.0
  C  C57  1  0.38748000  0.84862000  0.35850000  1.0
  C  C58  1  0.92985000  0.27288000  0.38936000  1.0
  C  C59  1  0.42985000  0.22712000  0.61064000  1.0
  C  C60  1  0.07015000  0.72712000  0.61064000  1.0
  C  C61  1  0.57015000  0.77288000  0.38936000  1.0
  C  C62  1  0.85722000  0.19693000  0.32796000  1.0
  C  C63  1  0.35725000  0.30307000  0.67204000  1.0
  C  C64  1  0.14278000  0.80307000  0.67204000  1.0
  C  C65  1  0.64276000  0.69693000  0.32796000  1.0
  C  C66  1  0.32623000  0.50314000  0.39110000  1.0
  C  C67  1  0.82624000  0.99686000  0.60889000  1.0
  C  C68  1  0.67376000  0.49686000  0.60889000  1.0
  C  C69  1  0.17376000  0.00314000  0.39110000  1.0
  O  O70  1  0.00525000  0.11095000  0.08763000  1.0
  O  O71  1  0.50525000  0.38905000  0.91237000  1.0
  O  O72  1  0.99474000  0.88905000  0.91237000  1.0
  O  O73  1  0.49474000  0.61095000  0.08763000  1.0
  O  O74  1  0.70442000  0.04355000  0.19754000  1.0
  O  O75  1  0.20443000  0.45645000  0.80247000  1.0
  O  O76  1  0.29557000  0.95644000  0.80247000  1.0
  O  O77  1  0.79557000  0.54355000  0.19754000  1.0
  O  O78  1  0.61822000  0.05901000  0.93228000  1.0
  O  O79  1  0.11823000  0.44099000  0.06772000  1.0
  O  O80  1  0.38177000  0.94099000  0.06772000  1.0
  O  O81  1  0.88177000  0.55901000  0.93228000  1.0
  O  O82  1  0.26009000  0.27058000  0.11731000  1.0
  O  O83  1  0.76010000  0.22942000  0.88269000  1.0
  O  O84  1  0.73992000  0.72941000  0.88269000  1.0
  O  O85  1  0.23991000  0.77058000  0.11731000  1.0
  O  O86  1  0.16787000  0.42161000  0.42237000  1.0
  O  O87  1  0.66788000  0.07839000  0.57763000  1.0
  O  O88  1  0.83213000  0.57839000  0.57763000  1.0
  O  O89  1  0.33213000  0.92161000  0.42237000  1.0
