# generated using pymatgen
data_CoH8C11N2O5
_symmetry_space_group_name_H-M   'P 1'
_cell_length_a   6.18248000
_cell_length_b   8.47794000
_cell_length_c   11.05880000
_cell_angle_alpha   85.28580000
_cell_angle_beta   87.24820000
_cell_angle_gamma   85.55740000
_symmetry_Int_Tables_number   1
_chemical_formula_structural   CoH8C11N2O5
_chemical_formula_sum   'Co2 H16 C22 N4 O10'
_cell_volume   575.44098320
_cell_formula_units_Z   2
loop_
 _symmetry_equiv_pos_site_id
 _symmetry_equiv_pos_as_xyz
  1  'x, y, z'
loop_
 _atom_site_type_symbol
 _atom_site_label
 _atom_site_symmetry_multiplicity
 _atom_site_fract_x
 _atom_site_fract_y
 _atom_site_fract_z
 _atom_site_occupancy
  Co  Co0  1  0.89929000  0.04343000  0.12705000  1.0
  Co  Co1  1  0.10073000  0.95657000  0.87295000  1.0
  H  H2  1  0.88222000  0.13353000  0.71529000  1.0
  H  H3  1  0.11779000  0.86646000  0.28471000  1.0
  H  H4  1  0.11611000  0.09089000  0.64668000  1.0
  H  H5  1  0.88391000  0.90910000  0.35333000  1.0
  H  H6  1  0.13135000  0.49578000  0.09527000  1.0
  H  H7  1  0.86864000  0.50423000  0.90473000  1.0
  H  H8  1  0.12325000  0.63185000  0.80067000  1.0
  H  H9  1  0.87676000  0.36816000  0.19933000  1.0
  H  H10  1  0.55197000  0.98623000  0.75918000  1.0
  H  H11  1  0.44807000  0.01377000  0.24083000  1.0
  H  H12  1  0.37132000  0.45093000  0.68032000  1.0
  H  H13  1  0.62867000  0.54907000  0.31967000  1.0
  H  H14  1  0.81299000  0.82514000  0.63279000  1.0
  H  H15  1  0.18703000  0.17485000  0.36723000  1.0
  H  H16  1  0.70739000  0.39876000  0.56562000  1.0
  H  H17  1  0.29259000  0.60124000  0.43438000  1.0
  C  C18  1  0.29455000  0.76793000  0.12265000  1.0
  C  C19  1  0.70544000  0.23206000  0.87737000  1.0
  C  C20  1  0.40826000  0.63353000  0.05778000  1.0
  C  C21  1  0.59173000  0.36646000  0.94222000  1.0
  C  C22  1  0.29420000  0.49848000  0.05345000  1.0
  C  C23  1  0.70577000  0.50152000  0.94653000  1.0
  C  C24  1  0.61849000  0.63501000  0.00367000  1.0
  C  C25  1  0.38150000  0.36500000  0.99632000  1.0
  C  C26  1  0.27789000  0.66856000  0.76161000  1.0
  C  C27  1  0.72211000  0.33144000  0.23839000  1.0
  C  C28  1  0.51664000  0.86799000  0.73753000  1.0
  C  C29  1  0.48337000  0.13201000  0.26249000  1.0
  C  C30  1  0.75522000  0.77300000  0.00547000  1.0
  C  C31  1  0.24479000  0.22700000  0.99453000  1.0
  C  C32  1  0.41475000  0.57025000  0.69324000  1.0
  C  C33  1  0.58525000  0.42975000  0.30677000  1.0
  C  C34  1  0.66092000  0.77773000  0.66666667  1.0
  C  C35  1  0.33908000  0.22227000  0.33341000  1.0
  C  C36  1  0.61215000  0.62394000  0.64400000  1.0
  C  C37  1  0.38785000  0.37606000  0.35600000  1.0
  C  C38  1  0.75757000  0.51795000  0.57552000  1.0
  C  C39  1  0.24240000  0.48205000  0.42447000  1.0
  N  N40  1  0.32807000  0.81465000  0.78570000  1.0
  N  N41  1  0.67194000  0.18535000  0.21431000  1.0
  N  N42  1  0.94293000  0.56060000  0.52928000  1.0
  N  N43  1  0.05706000  0.43941000  0.47071000  1.0
  O  O44  1  0.19575000  0.88333000  0.06129000  1.0
  O  O45  1  0.80424000  0.11668000  0.93871000  1.0
  O  O46  1  0.29060000  0.75209000  0.23774000  1.0
  O  O47  1  0.70939000  0.24791000  0.76226000  1.0
  O  O48  1  0.89324000  0.79065000  0.91683000  1.0
  O  O49  1  0.10676000  0.20935000  0.08316000  1.0
  O  O50  1  0.27245000  0.14089000  0.90504000  1.0
  O  O51  1  0.72755000  0.85911000  0.09496000  1.0
  O  O52  1  0.00298000  0.04461000  0.69925000  1.0
  O  O53  1  0.99703000  0.95539000  0.30075000  1.0
