# generated using pymatgen
data_CoH18C22(NO)4
_symmetry_space_group_name_H-M   'P 1'
_cell_length_a   7.73814000
_cell_length_b   18.54440000
_cell_length_c   18.54430000
_cell_angle_alpha   89.99830000
_cell_angle_beta   90.00020000
_cell_angle_gamma   89.99990000
_symmetry_Int_Tables_number   1
_chemical_formula_structural   CoH18C22(NO)4
_chemical_formula_sum   'Co4 H72 C88 N16 O16'
_cell_volume   2661.09153494
_cell_formula_units_Z   4
loop_
 _symmetry_equiv_pos_site_id
 _symmetry_equiv_pos_as_xyz
  1  'x, y, z'
loop_
 _atom_site_type_symbol
 _atom_site_label
 _atom_site_symmetry_multiplicity
 _atom_site_fract_x
 _atom_site_fract_y
 _atom_site_fract_z
 _atom_site_occupancy
  Co  Co0  1  0.50004000  0.77636000  0.77635000  1.0
  Co  Co1  1  0.50001000  0.22364000  0.22365000  1.0
  Co  Co2  1  0.50001000  0.27635000  0.72364000  1.0
  Co  Co3  1  0.50000000  0.72364000  0.27635000  1.0
  H  H4  1  0.93317000  0.84743000  0.76384000  1.0
  H  H5  1  0.93319000  0.15257000  0.23616000  1.0
  H  H6  1  0.93322000  0.26385000  0.65257000  1.0
  H  H7  1  0.93322000  0.73615000  0.34742000  1.0
  H  H8  1  0.06678000  0.65257000  0.26386000  1.0
  H  H9  1  0.06678000  0.34743000  0.73614000  1.0
  H  H10  1  0.06680000  0.23615000  0.15256000  1.0
  H  H11  1  0.06675000  0.76386000  0.84744000  1.0
  H  H12  1  0.30803000  0.01761000  0.74082000  1.0
  H  H13  1  0.30801000  0.98238000  0.25919000  1.0
  H  H14  1  0.30802000  0.24082000  0.48237000  1.0
  H  H15  1  0.30800000  0.75918000  0.51763000  1.0
  H  H16  1  0.69199000  0.48237000  0.24082000  1.0
  H  H17  1  0.69198000  0.51763000  0.75918000  1.0
  H  H18  1  0.69199000  0.25920000  0.98237000  1.0
  H  H19  1  0.69200000  0.74080000  0.01766000  1.0
  H  H20  1  0.69476000  0.93477000  0.74184000  1.0
  H  H21  1  0.69476000  0.06524000  0.25816000  1.0
  H  H22  1  0.69478000  0.24185000  0.56525000  1.0
  H  H23  1  0.69477000  0.75816000  0.43474000  1.0
  H  H24  1  0.30523000  0.56525000  0.24185000  1.0
  H  H25  1  0.30522000  0.43475000  0.75815000  1.0
  H  H26  1  0.30524000  0.25816000  0.06524000  1.0
  H  H27  1  0.30522000  0.74184000  0.93475000  1.0
  H  H28  1  0.06968000  0.10445000  0.71140000  1.0
  H  H29  1  0.06964000  0.89554000  0.28861000  1.0
  H  H30  1  0.06963000  0.21140000  0.39555000  1.0
  H  H31  1  0.06962000  0.78860000  0.60445000  1.0
  H  H32  1  0.93038000  0.39554000  0.21140000  1.0
  H  H33  1  0.93037000  0.60446000  0.78859000  1.0
  H  H34  1  0.93036000  0.28861000  0.89554000  1.0
  H  H35  1  0.93041000  0.71138000  0.10447000  1.0
  H  H36  1  0.62738000  0.01889000  0.61559000  1.0
  H  H37  1  0.62734000  0.98111000  0.38441000  1.0
  H  H38  1  0.62730000  0.11561000  0.48114000  1.0
  H  H39  1  0.62728000  0.88438000  0.51885000  1.0
  H  H40  1  0.37270000  0.48114000  0.11561000  1.0
  H  H41  1  0.37267000  0.51887000  0.88439000  1.0
  H  H42  1  0.37266000  0.38441000  0.98111000  1.0
  H  H43  1  0.37268000  0.61559000  0.01888000  1.0
  H  H44  1  0.86376000  0.11888000  0.83236000  1.0
  H  H45  1  0.86374000  0.88112000  0.16764000  1.0
  H  H46  1  0.86377000  0.33236000  0.38111000  1.0
  H  H47  1  0.86381000  0.66765000  0.61891000  1.0
  H  H48  1  0.13624000  0.38112000  0.33236000  1.0
  H  H49  1  0.13628000  0.61887000  0.66763000  1.0
  H  H50  1  0.13627000  0.16765000  0.88113000  1.0
  H  H51  1  0.13627000  0.83235000  0.11887000  1.0
  H  H52  1  0.67451000  0.16983000  0.85278000  1.0
  H  H53  1  0.67449000  0.83017000  0.14722000  1.0
  H  H54  1  0.67452000  0.35277000  0.33015000  1.0
  H  H55  1  0.67454000  0.64723000  0.66984000  1.0
  H  H56  1  0.32548000  0.33015000  0.35277000  1.0
  H  H57  1  0.32550000  0.66986000  0.64723000  1.0
  H  H58  1  0.32551000  0.14722000  0.83017000  1.0
  H  H59  1  0.32552000  0.85278000  0.16983000  1.0
  H  H60  1  0.84298000  0.21070000  0.80329000  1.0
  H  H61  1  0.84296000  0.78930000  0.19671000  1.0
  H  H62  1  0.84299000  0.30327000  0.28929000  1.0
  H  H63  1  0.84296000  0.69674000  0.71072000  1.0
  H  H64  1  0.15700000  0.28930000  0.30328000  1.0
  H  H65  1  0.15697000  0.71069000  0.69671000  1.0
  H  H66  1  0.15704000  0.19672000  0.78930000  1.0
  H  H67  1  0.15706000  0.80328000  0.21069000  1.0
  H  H68  1  0.41219000  0.13965000  0.61557000  1.0
  H  H69  1  0.41219000  0.86034000  0.38443000  1.0
  H  H70  1  0.41218000  0.11558000  0.36036000  1.0
  H  H71  1  0.41211000  0.88440000  0.63962000  1.0
  H  H72  1  0.58780000  0.36035000  0.11557000  1.0
  H  H73  1  0.58774000  0.63966000  0.88445000  1.0
  H  H74  1  0.58782000  0.38443000  0.86034000  1.0
  H  H75  1  0.58785000  0.61557000  0.13965000  1.0
  C  C76  1  0.27646000  0.87424000  0.76710000  1.0
  C  C77  1  0.27649000  0.12574000  0.23290000  1.0
  C  C78  1  0.27650000  0.26711000  0.62574000  1.0
  C  C79  1  0.27651000  0.73288000  0.37427000  1.0
  C  C80  1  0.72351000  0.62574000  0.26712000  1.0
  C  C81  1  0.72349000  0.37427000  0.73288000  1.0
  C  C82  1  0.72350000  0.23289000  0.12573000  1.0
  C  C83  1  0.72346000  0.76712000  0.87430000  1.0
  C  C84  1  0.13534000  0.92738000  0.75400000  1.0
  C  C85  1  0.13533000  0.07261000  0.24600000  1.0
  C  C86  1  0.13535000  0.25401000  0.57261000  1.0
  C  C87  1  0.13534000  0.74599000  0.42739000  1.0
  C  C88  1  0.86466000  0.57261000  0.25401000  1.0
  C  C89  1  0.86465000  0.42739000  0.74599000  1.0
  C  C90  1  0.86466000  0.24600000  0.07260000  1.0
  C  C91  1  0.86464000  0.75401000  0.92741000  1.0
  C  C92  1  0.96310000  0.90376000  0.75293000  1.0
  C  C93  1  0.96311000  0.09623000  0.24706000  1.0
  C  C94  1  0.96312000  0.25294000  0.59624000  1.0
  C  C95  1  0.96312000  0.74706000  0.40376000  1.0
  C  C96  1  0.03689000  0.59623000  0.25295000  1.0
  C  C97  1  0.03688000  0.40377000  0.74705000  1.0
  C  C98  1  0.03689000  0.24706000  0.09623000  1.0
  C  C99  1  0.03686000  0.75295000  0.90378000  1.0
  C  C100  1  0.17357000  0.00006000  0.74049000  1.0
  C  C101  1  0.17355000  0.99993000  0.25952000  1.0
  C  C102  1  0.17356000  0.24049000  0.49993000  1.0
  C  C103  1  0.17355000  0.75951000  0.50007000  1.0
  C  C104  1  0.82644000  0.49993000  0.24050000  1.0
  C  C105  1  0.82644000  0.50007000  0.75951000  1.0
  C  C106  1  0.82645000  0.25952000  0.99992000  1.0
  C  C107  1  0.82645000  0.74048000  0.00009000  1.0
  C  C108  1  0.82940000  0.95215000  0.73969000  1.0
  C  C109  1  0.82939000  0.04785000  0.26031000  1.0
  C  C110  1  0.82941000  0.23969000  0.54786000  1.0
  C  C111  1  0.82940000  0.76031000  0.45214000  1.0
  C  C112  1  0.17060000  0.54786000  0.23969000  1.0
  C  C113  1  0.17060000  0.45215000  0.76030000  1.0
  C  C114  1  0.17061000  0.26032000  0.04785000  1.0
  C  C115  1  0.17059000  0.73969000  0.95215000  1.0
  C  C116  1  0.04111000  0.04846000  0.72476000  1.0
  C  C117  1  0.04108000  0.95154000  0.27525000  1.0
  C  C118  1  0.04108000  0.22476000  0.45154000  1.0
  C  C119  1  0.04107000  0.77524000  0.54846000  1.0
  C  C120  1  0.95892000  0.45154000  0.22476000  1.0
  C  C121  1  0.95892000  0.54846000  0.77524000  1.0
  C  C122  1  0.95892000  0.27525000  0.95153000  1.0
  C  C123  1  0.95894000  0.72475000  0.04848000  1.0
  C  C124  1  0.86984000  0.02409000  0.72507000  1.0
  C  C125  1  0.86982000  0.97591000  0.27493000  1.0
  C  C126  1  0.86983000  0.22508000  0.47592000  1.0
  C  C127  1  0.86982000  0.77493000  0.52408000  1.0
  C  C128  1  0.13018000  0.47592000  0.22508000  1.0
  C  C129  1  0.13017000  0.52409000  0.77492000  1.0
  C  C130  1  0.13018000  0.27493000  0.97590000  1.0
  C  C131  1  0.13019000  0.72507000  0.02409000  1.0
  C  C132  1  0.61970000  0.06530000  0.65089000  1.0
  C  C133  1  0.61967000  0.93470000  0.34911000  1.0
  C  C134  1  0.61965000  0.15090000  0.43473000  1.0
  C  C135  1  0.61963000  0.84909000  0.56526000  1.0
  C  C136  1  0.38034000  0.43472000  0.15090000  1.0
  C  C137  1  0.38033000  0.56528000  0.84910000  1.0
  C  C138  1  0.38034000  0.34912000  0.93470000  1.0
  C  C139  1  0.38036000  0.65088000  0.06529000  1.0
  C  C140  1  0.69228000  0.13551000  0.74383000  1.0
  C  C141  1  0.69227000  0.86449000  0.25617000  1.0
  C  C142  1  0.69228000  0.24383000  0.36450000  1.0
  C  C143  1  0.69227000  0.75617000  0.63550000  1.0
  C  C144  1  0.30771000  0.36449000  0.24382000  1.0
  C  C145  1  0.30770000  0.63551000  0.75617000  1.0
  C  C146  1  0.30774000  0.25617000  0.86449000  1.0
  C  C147  1  0.30777000  0.74383000  0.13550000  1.0
  C  C148  1  0.77423000  0.15972000  0.81191000  1.0
  C  C149  1  0.77422000  0.84028000  0.18809000  1.0
  C  C150  1  0.77425000  0.31190000  0.34028000  1.0
  C  C151  1  0.77425000  0.68810000  0.65973000  1.0
  C  C152  1  0.22575000  0.34028000  0.31190000  1.0
  C  C153  1  0.22576000  0.65972000  0.68809000  1.0
  C  C154  1  0.22579000  0.18809000  0.84029000  1.0
  C  C155  1  0.22581000  0.81190000  0.15971000  1.0
  C  C156  1  0.51488000  0.12471000  0.65232000  1.0
  C  C157  1  0.51487000  0.87528000  0.34768000  1.0
  C  C158  1  0.51486000  0.15233000  0.37530000  1.0
  C  C159  1  0.51482000  0.84766000  0.62468000  1.0
  C  C160  1  0.48512000  0.37529000  0.15232000  1.0
  C  C161  1  0.48509000  0.62472000  0.84768000  1.0
  C  C162  1  0.48514000  0.34768000  0.87528000  1.0
  C  C163  1  0.48517000  0.65232000  0.12471000  1.0
  N  N164  1  0.73295000  0.07304000  0.70847000  1.0
  N  N165  1  0.73292000  0.92697000  0.29152000  1.0
  N  N166  1  0.73292000  0.20848000  0.42698000  1.0
  N  N167  1  0.73291000  0.79152000  0.57301000  1.0
  N  N168  1  0.26708000  0.42698000  0.20848000  1.0
  N  N169  1  0.26707000  0.57303000  0.79151000  1.0
  N  N170  1  0.26708000  0.29153000  0.92697000  1.0
  N  N171  1  0.26711000  0.70847000  0.07303000  1.0
  N  N172  1  0.56100000  0.16818000  0.70988000  1.0
  N  N173  1  0.56099000  0.83181000  0.29012000  1.0
  N  N174  1  0.56101000  0.20988000  0.33182000  1.0
  N  N175  1  0.56098000  0.79011000  0.66817000  1.0
  N  N176  1  0.43897000  0.33181000  0.20987000  1.0
  N  N177  1  0.43895000  0.66820000  0.79013000  1.0
  N  N178  1  0.43902000  0.29013000  0.83181000  1.0
  N  N179  1  0.43904000  0.70988000  0.16818000  1.0
  O  O180  1  0.43054000  0.89403000  0.78063000  1.0
  O  O181  1  0.43055000  0.10593000  0.21938000  1.0
  O  O182  1  0.43057000  0.28062000  0.60594000  1.0
  O  O183  1  0.43058000  0.71939000  0.39408000  1.0
  O  O184  1  0.56944000  0.60594000  0.28062000  1.0
  O  O185  1  0.56942000  0.39408000  0.71939000  1.0
  O  O186  1  0.56944000  0.21939000  0.10592000  1.0
  O  O187  1  0.56940000  0.78059000  0.89412000  1.0
  O  O188  1  0.24052000  0.80675000  0.76168000  1.0
  O  O189  1  0.24056000  0.19323000  0.23828000  1.0
  O  O190  1  0.24056000  0.26173000  0.69323000  1.0
  O  O191  1  0.24058000  0.73825000  0.30677000  1.0
  O  O192  1  0.75945000  0.69323000  0.26174000  1.0
  O  O193  1  0.75943000  0.30677000  0.73825000  1.0
  O  O194  1  0.75942000  0.23826000  0.19323000  1.0
  O  O195  1  0.75938000  0.76179000  0.80679000  1.0
