# generated using pymatgen
data_TbH6(C2N3)3
_symmetry_space_group_name_H-M   'P 1'
_cell_length_a   8.53407000
_cell_length_b   8.53405000
_cell_length_c   9.31264000
_cell_angle_alpha   117.27480000
_cell_angle_beta   117.27390000
_cell_angle_gamma   59.99640000
_symmetry_Int_Tables_number   1
_chemical_formula_structural   TbH6(C2N3)3
_chemical_formula_sum   'Tb2 H12 C12 N18'
_cell_volume   498.39141274
_cell_formula_units_Z   2
loop_
 _symmetry_equiv_pos_site_id
 _symmetry_equiv_pos_as_xyz
  1  'x, y, z'
loop_
 _atom_site_type_symbol
 _atom_site_label
 _atom_site_symmetry_multiplicity
 _atom_site_fract_x
 _atom_site_fract_y
 _atom_site_fract_z
 _atom_site_occupancy
  Tb  Tb0  1  0.80746000  0.80743000  0.42233000  1.0
  Tb  Tb1  1  0.19253000  0.19257000  0.57767000  1.0
  H  H2  1  0.14737000  0.51571000  0.03465000  1.0
  H  H3  1  0.37156000  0.14752000  0.03478000  1.0
  H  H4  1  0.51567000  0.37159000  0.03462000  1.0
  H  H5  1  0.85263000  0.48428000  0.96535000  1.0
  H  H6  1  0.62844000  0.85248000  0.96522000  1.0
  H  H7  1  0.48432000  0.62841000  0.96538000  1.0
  H  H8  1  0.32533000  0.77905000  0.20704000  1.0
  H  H9  1  0.10270000  0.32544000  0.20723000  1.0
  H  H10  1  0.77906000  0.10262000  0.20695000  1.0
  H  H11  1  0.67467000  0.22095000  0.79296000  1.0
  H  H12  1  0.89730000  0.67456000  0.79278000  1.0
  H  H13  1  0.22095000  0.89738000  0.79305000  1.0
  C  C14  1  0.12936000  0.63850000  0.14513000  1.0
  C  C15  1  0.37735000  0.12950000  0.14527000  1.0
  C  C16  1  0.63844000  0.37731000  0.14512000  1.0
  C  C17  1  0.87064000  0.36150000  0.85487000  1.0
  C  C18  1  0.62265000  0.87050000  0.85473000  1.0
  C  C19  1  0.36156000  0.62269000  0.85488000  1.0
  C  C20  1  0.21755000  0.76977000  0.23028000  1.0
  C  C21  1  0.24306000  0.21771000  0.23045000  1.0
  C  C22  1  0.76973000  0.24295000  0.23023000  1.0
  C  C23  1  0.78245000  0.23023000  0.76971000  1.0
  C  C24  1  0.75694000  0.78229000  0.76955000  1.0
  C  C25  1  0.23027000  0.75704000  0.76977000  1.0
  N  N26  1  0.01891000  0.84520000  0.35466000  1.0
  N  N27  1  0.49059000  0.01890000  0.35469000  1.0
  N  N28  1  0.84520000  0.49053000  0.35462000  1.0
  N  N29  1  0.98109000  0.15480000  0.64534000  1.0
  N  N30  1  0.50941000  0.98110000  0.64531000  1.0
  N  N31  1  0.15480000  0.50947000  0.64538000  1.0
  N  N32  1  0.14628000  0.89719000  0.36087000  1.0
  N  N33  1  0.31747000  0.14632000  0.36095000  1.0
  N  N34  1  0.89718000  0.31737000  0.36080000  1.0
  N  N35  1  0.85372000  0.10281000  0.63913000  1.0
  N  N36  1  0.68253000  0.85368000  0.63905000  1.0
  N  N37  1  0.10282000  0.68262000  0.63920000  1.0
  N  N38  1  0.00574000  0.68953000  0.22582000  1.0
  N  N39  1  0.53062000  0.00577000  0.22589000  1.0
  N  N40  1  0.68951000  0.53058000  0.22581000  1.0
  N  N41  1  0.99427000  0.31047000  0.77418000  1.0
  N  N42  1  0.46938000  0.99423000  0.77410000  1.0
  N  N43  1  0.31049000  0.46942000  0.77419000  1.0
