# generated using pymatgen
data_HgH6C8(IN3)2
_symmetry_space_group_name_H-M   'P 1'
_cell_length_a   8.15771000
_cell_length_b   14.88320000
_cell_length_c   18.22416711
_cell_angle_alpha   75.40679239
_cell_angle_beta   77.07203373
_cell_angle_gamma   89.99220000
_symmetry_Int_Tables_number   1
_chemical_formula_structural   HgH6C8(IN3)2
_chemical_formula_sum   'Hg6 H36 C48 I12 N36'
_cell_volume   2083.27674898
_cell_formula_units_Z   6
loop_
 _symmetry_equiv_pos_site_id
 _symmetry_equiv_pos_as_xyz
  1  'x, y, z'
loop_
 _atom_site_type_symbol
 _atom_site_label
 _atom_site_symmetry_multiplicity
 _atom_site_fract_x
 _atom_site_fract_y
 _atom_site_fract_z
 _atom_site_occupancy
  Hg  Hg0  1  0.69929000  0.93886000  0.39762000  1.0
  Hg  Hg1  1  0.09715000  0.56119000  0.60237000  1.0
  Hg  Hg2  1  0.30072000  0.06114000  0.60237000  1.0
  Hg  Hg3  1  0.90285000  0.43880000  0.39763000  1.0
  Hg  Hg4  1  0.35202000  0.24991000  0.00004000  1.0
  Hg  Hg5  1  0.64798000  0.75009000  0.99996000  1.0
  H  H6  1  0.31198000  0.20101000  0.43063000  1.0
  H  H7  1  0.74265000  0.29885000  0.56945000  1.0
  H  H8  1  0.68802000  0.79899000  0.56937000  1.0
  H  H9  1  0.25735000  0.70114000  0.43055000  1.0
  H  H10  1  0.46346000  0.29875000  0.51164000  1.0
  H  H11  1  0.97521000  0.20121000  0.48828000  1.0
  H  H12  1  0.53654000  0.70125000  0.48836000  1.0
  H  H13  1  0.02479000  0.79879000  0.51172000  1.0
  H  H14  1  0.97053000  0.93187000  0.20118000  1.0
  H  H15  1  0.17196000  0.56807000  0.79862000  1.0
  H  H16  1  0.02949000  0.06813000  0.79881000  1.0
  H  H17  1  0.82804000  0.43193000  0.20138000  1.0
  H  H18  1  0.82594000  0.27102000  0.31471000  1.0
  H  H19  1  0.14105000  0.22886000  0.68519000  1.0
  H  H20  1  0.17405000  0.72898000  0.68530000  1.0
  H  H21  1  0.85895000  0.77114000  0.31481000  1.0
  H  H22  1  0.30438000  0.00299000  0.14601000  1.0
  H  H23  1  0.45046000  0.49681000  0.85401000  1.0
  H  H24  1  0.69562000  0.99701000  0.85399000  1.0
  H  H25  1  0.54954000  0.50319000  0.14599000  1.0
  H  H26  1  0.70746000  0.06204000  0.06038000  1.0
  H  H27  1  0.76784000  0.43766000  0.93972000  1.0
  H  H28  1  0.29254000  0.93796000  0.93962000  1.0
  H  H29  1  0.23216000  0.56234000  0.06028000  1.0
  H  H30  1  0.98969000  0.21466000  0.16351000  1.0
  H  H31  1  0.15378000  0.28546000  0.83638000  1.0
  H  H32  1  0.01032000  0.78534000  0.83649000  1.0
  H  H33  1  0.84622000  0.71454000  0.16362000  1.0
  H  H34  1  0.04279000  0.09061000  0.97597000  1.0
  H  H35  1  0.01893000  0.40920000  0.02407000  1.0
  H  H36  1  0.95722000  0.90939000  0.02403000  1.0
  H  H37  1  0.98106000  0.59080000  0.97594000  1.0
  H  H38  1  0.08202000  0.08526000  0.35151000  1.0
  H  H39  1  0.43381000  0.41450000  0.64848000  1.0
  H  H40  1  0.91797000  0.91474000  0.64849000  1.0
  H  H41  1  0.56619000  0.58550000  0.35152000  1.0
  C  C42  1  0.09136000  0.05371000  0.30332000  1.0
  C  C43  1  0.39493000  0.44607000  0.69666000  1.0
  C  C44  1  0.90864000  0.94629000  0.69668000  1.0
  C  C45  1  0.60507000  0.55393000  0.30334000  1.0
  C  C46  1  0.39102000  0.10341000  0.24378000  1.0
  C  C47  1  0.63495000  0.39640000  0.75627000  1.0
  C  C48  1  0.60898000  0.89659000  0.75622000  1.0
  C  C49  1  0.36505000  0.60360000  0.24373000  1.0
  C  C50  1  0.43859000  0.23072000  0.41975000  1.0
  C  C51  1  0.85856000  0.26923000  0.58021000  1.0
  C  C52  1  0.56141000  0.76928000  0.58025000  1.0
  C  C53  1  0.14144000  0.73077000  0.41979000  1.0
  C  C54  1  0.51676000  0.27885000  0.45839000  1.0
  C  C55  1  0.97537000  0.22112000  0.54152000  1.0
  C  C56  1  0.48324000  0.72115000  0.54161000  1.0
  C  C57  1  0.02463000  0.77888000  0.45848000  1.0
  C  C58  1  0.04388000  0.97433000  0.22418000  1.0
  C  C59  1  0.26834000  0.52558000  0.77570000  1.0
  C  C60  1  0.95613000  0.02567000  0.77581000  1.0
  C  C61  1  0.73166000  0.47442000  0.22430000  1.0
  C  C62  1  0.70946000  0.26638000  0.35833000  1.0
  C  C63  1  0.06804000  0.23354000  0.64161000  1.0
  C  C64  1  0.29054000  0.73362000  0.64167000  1.0
  C  C65  1  0.93196000  0.76646000  0.35839000  1.0
  C  C66  1  0.20780000  0.00823000  0.19598000  1.0
  C  C67  1  0.40396000  0.49164000  0.80399000  1.0
  C  C68  1  0.79220000  0.99178000  0.80402000  1.0
  C  C69  1  0.59603000  0.50836000  0.19601000  1.0
  C  C70  1  0.54560000  0.18112000  0.29716000  1.0
  C  C71  1  0.84295000  0.31872000  0.70286000  1.0
  C  C72  1  0.45440000  0.81888000  0.70284000  1.0
  C  C73  1  0.15705000  0.68128000  0.29714000  1.0
  C  C74  1  0.66243000  0.14129000  0.18749000  1.0
  C  C75  1  0.85011000  0.35857000  0.81254000  1.0
  C  C76  1  0.33758000  0.85871000  0.81251000  1.0
  C  C77  1  0.14989000  0.64143000  0.18746000  1.0
  C  C78  1  0.81637000  0.09730000  0.06786000  1.0
  C  C79  1  0.88447000  0.40260000  0.93213000  1.0
  C  C80  1  0.18363000  0.90270000  0.93214000  1.0
  C  C81  1  0.11553000  0.59740000  0.06787000  1.0
  C  C82  1  0.96330000  0.17761000  0.12290000  1.0
  C  C83  1  0.08653000  0.32235000  0.87706000  1.0
  C  C84  1  0.03670000  0.82240000  0.87710000  1.0
  C  C85  1  0.91347000  0.67765000  0.12294000  1.0
  C  C86  1  0.98143000  0.11196000  0.02764000  1.0
  C  C87  1  0.00940000  0.38800000  0.97231000  1.0
  C  C88  1  0.01857000  0.88805000  0.97236000  1.0
  C  C89  1  0.99060000  0.61200000  0.02769000  1.0
  I  I90  1  0.54637000  0.86693000  0.30732000  1.0
  I  I91  1  0.85389000  0.63297000  0.69277000  1.0
  I  I92  1  0.45363000  0.13308000  0.69268000  1.0
  I  I93  1  0.14611000  0.36703000  0.30723000  1.0
  I  I94  1  0.75179000  0.03469000  0.49641000  1.0
  I  I95  1  0.24817000  0.46547000  0.50345000  1.0
  I  I96  1  0.24822000  0.96531000  0.50358000  1.0
  I  I97  1  0.75184000  0.53453000  0.49655000  1.0
  I  I98  1  0.38505000  0.35027000  0.09960000  1.0
  I  I99  1  0.48466000  0.14956000  0.90046000  1.0
  I  I100  1  0.61495000  0.64973000  0.90040000  1.0
  I  I101  1  0.51534000  0.85044000  0.09954000  1.0
  N  N102  1  0.97327000  0.00359000  0.29051000  1.0
  N  N103  1  0.26412000  0.49627000  0.70938000  1.0
  N  N104  1  0.02672000  0.99641000  0.70949000  1.0
  N  N105  1  0.73588000  0.50373000  0.29062000  1.0
  N  N106  1  0.23812000  0.05927000  0.24654000  1.0
  N  N107  1  0.48482000  0.44052000  0.75348000  1.0
  N  N108  1  0.76188000  0.94073000  0.75346000  1.0
  N  N109  1  0.51518000  0.55948000  0.24652000  1.0
  N  N110  1  0.07063000  0.16154000  0.06274000  1.0
  N  N111  1  0.13375000  0.33846000  0.93719000  1.0
  N  N112  1  0.92937000  0.83847000  0.93726000  1.0
  N  N113  1  0.86625000  0.66154000  0.06281000  1.0
  N  N114  1  0.68487000  0.30078000  0.41931000  1.0
  N  N115  1  0.10444000  0.19917000  0.58060000  1.0
  N  N116  1  0.31512000  0.69922000  0.58069000  1.0
  N  N117  1  0.89556000  0.80083000  0.41940000  1.0
  N  N118  1  0.51935000  0.10084000  0.18407000  1.0
  N  N119  1  0.70359000  0.39901000  0.81597000  1.0
  N  N120  1  0.48065000  0.89916000  0.81593000  1.0
  N  N121  1  0.29641000  0.60099000  0.18403000  1.0
  N  N122  1  0.39441000  0.14281000  0.30178000  1.0
  N  N123  1  0.69630000  0.35698000  0.69829000  1.0
  N  N124  1  0.60559000  0.85719000  0.69822000  1.0
  N  N125  1  0.30371000  0.64302000  0.30171000  1.0
  N  N126  1  0.68534000  0.18266000  0.24163000  1.0
  N  N127  1  0.92718000  0.31722000  0.75838000  1.0
  N  N128  1  0.31466000  0.81734000  0.75837000  1.0
  N  N129  1  0.07281000  0.68278000  0.24162000  1.0
  N  N130  1  0.56226000  0.22313000  0.35535000  1.0
  N  N131  1  0.91783000  0.27677000  0.64463000  1.0
  N  N132  1  0.43773000  0.77687000  0.64466000  1.0
  N  N133  1  0.08217000  0.72323000  0.35537000  1.0
  N  N134  1  0.80535000  0.13945000  0.12881000  1.0
  N  N135  1  0.93439000  0.36043000  0.87120000  1.0
  N  N136  1  0.19466000  0.86055000  0.87119000  1.0
  N  N137  1  0.06561000  0.63957000  0.12880000  1.0
