# generated using pymatgen
data_CoNiH14C18(NO5)2
_symmetry_space_group_name_H-M   'P 1'
_cell_length_a   9.69367000
_cell_length_b   10.90570000
_cell_length_c   21.97920000
_cell_angle_alpha   90.00170000
_cell_angle_beta   89.94150000
_cell_angle_gamma   89.99790000
_symmetry_Int_Tables_number   1
_chemical_formula_structural   CoNiH14C18(NO5)2
_chemical_formula_sum   'Co4 Ni4 H56 C72 N8 O40'
_cell_volume   2323.55754036
_cell_formula_units_Z   4
loop_
 _symmetry_equiv_pos_site_id
 _symmetry_equiv_pos_as_xyz
  1  'x, y, z'
loop_
 _atom_site_type_symbol
 _atom_site_label
 _atom_site_symmetry_multiplicity
 _atom_site_fract_x
 _atom_site_fract_y
 _atom_site_fract_z
 _atom_site_occupancy
  Co  Co0  1  0.24624000  0.19711000  0.01556000  1.0
  Co  Co1  1  0.25386000  0.30235000  0.51614000  1.0
  Co  Co2  1  0.75380000  0.19712000  0.48445000  1.0
  Co  Co3  1  0.74613000  0.30234000  0.98387000  1.0
  Ni  Ni4  1  0.27795000  0.70415000  0.02202000  1.0
  Ni  Ni5  1  0.22153000  0.79568000  0.52162000  1.0
  Ni  Ni6  1  0.72204000  0.70414000  0.47797000  1.0
  Ni  Ni7  1  0.77847000  0.79569000  0.97837000  1.0
  H  H8  1  0.36484000  0.40416000  0.89603000  1.0
  H  H9  1  0.12202000  0.38429000  0.86739000  1.0
  H  H10  1  0.14016000  0.51565000  0.91468000  1.0
  H  H11  1  0.10357000  0.38418000  0.09685000  1.0
  H  H12  1  0.98746000  0.39361000  0.19802000  1.0
  H  H13  1  0.10008000  0.01301000  0.22332000  1.0
  H  H14  1  0.20543000  0.01880000  0.11967000  1.0
  H  H15  1  0.13640000  0.09827000  0.39515000  1.0
  H  H16  1  0.37993000  0.11845000  0.36719000  1.0
  H  H17  1  0.36034000  0.98608000  0.41372000  1.0
  H  H18  1  0.39558000  0.11546000  0.59717000  1.0
  H  H19  1  0.51235000  0.10621000  0.69812000  1.0
  H  H20  1  0.39996000  0.48695000  0.72344000  1.0
  H  H21  1  0.29388000  0.48089000  0.62002000  1.0
  H  H22  1  0.63516000  0.40415000  0.60397000  1.0
  H  H23  1  0.87799000  0.38429000  0.63262000  1.0
  H  H24  1  0.85980000  0.51565000  0.58533000  1.0
  H  H25  1  0.89637000  0.38417000  0.40313000  1.0
  H  H26  1  0.01248000  0.39364000  0.30195000  1.0
  H  H27  1  0.89994000  0.01300000  0.27665000  1.0
  H  H28  1  0.79459000  0.01876000  0.38032000  1.0
  H  H29  1  0.86361000  0.09826000  0.10484000  1.0
  H  H30  1  0.62009000  0.11843000  0.13282000  1.0
  H  H31  1  0.63967000  0.98608000  0.08626000  1.0
  H  H32  1  0.60444000  0.11545000  0.90283000  1.0
  H  H33  1  0.48767000  0.10620000  0.80188000  1.0
  H  H34  1  0.59996000  0.48697000  0.77657000  1.0
  H  H35  1  0.70604000  0.48092000  0.87999000  1.0
  H  H36  1  0.65076000  0.60835000  0.09963000  1.0
  H  H37  1  0.89179000  0.63009000  0.12994000  1.0
  H  H38  1  0.87885000  0.49507000  0.08502000  1.0
  H  H39  1  0.90986000  0.62564000  0.90223000  1.0
  H  H40  1  0.01694000  0.62188000  0.79990000  1.0
  H  H41  1  0.90613000  0.00490000  0.78140000  1.0
  H  H42  1  0.81038000  0.99439000  0.88694000  1.0
  H  H43  1  0.84771000  0.89081000  0.59981000  1.0
  H  H44  1  0.60663000  0.86838000  0.62970000  1.0
  H  H45  1  0.61980000  0.00390000  0.58518000  1.0
  H  H46  1  0.59133000  0.87483000  0.40193000  1.0
  H  H47  1  0.48361000  0.87841000  0.29989000  1.0
  H  H48  1  0.59415000  0.49536000  0.28128000  1.0
  H  H49  1  0.69046000  0.50590000  0.38653000  1.0
  H  H50  1  0.34923000  0.60828000  0.40038000  1.0
  H  H51  1  0.10819000  0.63003000  0.37007000  1.0
  H  H52  1  0.12114000  0.49502000  0.41499000  1.0
  H  H53  1  0.09010000  0.62565000  0.59777000  1.0
  H  H54  1  0.98312000  0.62188000  0.70011000  1.0
  H  H55  1  0.09397000  0.00487000  0.71861000  1.0
  H  H56  1  0.18966000  0.99437000  0.61306000  1.0
  H  H57  1  0.15232000  0.89087000  0.90020000  1.0
  H  H58  1  0.39337000  0.86839000  0.87030000  1.0
  H  H59  1  0.38023000  0.00392000  0.91482000  1.0
  H  H60  1  0.40866000  0.87484000  0.09807000  1.0
  H  H61  1  0.51638000  0.87842000  0.20012000  1.0
  H  H62  1  0.40586000  0.49536000  0.21871000  1.0
  H  H63  1  0.30953000  0.50593000  0.11346000  1.0
  C  C64  1  0.33094000  0.43656000  0.99194000  1.0
  C  C65  1  0.29223000  0.37309000  0.93156000  1.0
  C  C66  1  0.14494000  0.41470000  0.91408000  1.0
  C  C67  1  0.03196000  0.36329000  0.95527000  1.0
  C  C68  1  0.10073000  0.30459000  0.12676000  1.0
  C  C69  1  0.03738000  0.30902000  0.18346000  1.0
  C  C70  1  0.03407000  0.20361000  0.21998000  1.0
  C  C71  1  0.09724000  0.09748000  0.19688000  1.0
  C  C72  1  0.15842000  0.10013000  0.13969000  1.0
  C  C73  1  0.17009000  0.06274000  0.49092000  1.0
  C  C74  1  0.20842000  0.12850000  0.43097000  1.0
  C  C75  1  0.35605000  0.08702000  0.41362000  1.0
  C  C76  1  0.46840000  0.13696000  0.45547000  1.0
  C  C77  1  0.39860000  0.19507000  0.62707000  1.0
  C  C78  1  0.46236000  0.19077000  0.68361000  1.0
  C  C79  1  0.46583000  0.29630000  0.72005000  1.0
  C  C80  1  0.40256000  0.40238000  0.69706000  1.0
  C  C81  1  0.34095000  0.39958000  0.64000000  1.0
  C  C82  1  0.66904000  0.43651000  0.50806000  1.0
  C  C83  1  0.70777000  0.37307000  0.56844000  1.0
  C  C84  1  0.85505000  0.41471000  0.58594000  1.0
  C  C85  1  0.96804000  0.36330000  0.54475000  1.0
  C  C86  1  0.89924000  0.30459000  0.37322000  1.0
  C  C87  1  0.96258000  0.30904000  0.31652000  1.0
  C  C88  1  0.96592000  0.20359000  0.28001000  1.0
  C  C89  1  0.90278000  0.09747000  0.30309000  1.0
  C  C90  1  0.84160000  0.10010000  0.36030000  1.0
  C  C91  1  0.82994000  0.06275000  0.00907000  1.0
  C  C92  1  0.79160000  0.12852000  0.06903000  1.0
  C  C93  1  0.64396000  0.08703000  0.08638000  1.0
  C  C94  1  0.53160000  0.13698000  0.04453000  1.0
  C  C95  1  0.60140000  0.19506000  0.87294000  1.0
  C  C96  1  0.53766000  0.19077000  0.81639000  1.0
  C  C97  1  0.53415000  0.29630000  0.77996000  1.0
  C  C98  1  0.59737000  0.40241000  0.80296000  1.0
  C  C99  1  0.65899000  0.39959000  0.86001000  1.0
  C  C100  1  0.68768000  0.56986000  0.00510000  1.0
  C  C101  1  0.72500000  0.63690000  0.06409000  1.0
  C  C102  1  0.87098000  0.59580000  0.08375000  1.0
  C  C103  1  0.98387000  0.64659000  0.04265000  1.0
  C  C104  1  0.91109000  0.70725000  0.87371000  1.0
  C  C105  1  0.96931000  0.70620000  0.81613000  1.0
  C  C106  1  0.96966000  0.81330000  0.78076000  1.0
  C  C107  1  0.91028000  0.91874000  0.80646000  1.0
  C  C108  1  0.85373000  0.91391000  0.86457000  1.0
  C  C109  1  0.81244000  0.93009000  0.50526000  1.0
  C  C110  1  0.77405000  0.86242000  0.56406000  1.0
  C  C111  1  0.62777000  0.90319000  0.58361000  1.0
  C  C112  1  0.51516000  0.85286000  0.54232000  1.0
  C  C113  1  0.59003000  0.79320000  0.37342000  1.0
  C  C114  1  0.53140000  0.79411000  0.31597000  1.0
  C  C115  1  0.53067000  0.68692000  0.28067000  1.0
  C  C116  1  0.59015000  0.58154000  0.30630000  1.0
  C  C117  1  0.64715000  0.58646000  0.36427000  1.0
  C  C118  1  0.31232000  0.56985000  0.49491000  1.0
  C  C119  1  0.27498000  0.63686000  0.43591000  1.0
  C  C120  1  0.12900000  0.59575000  0.41626000  1.0
  C  C121  1  0.01612000  0.64656000  0.45736000  1.0
  C  C122  1  0.08892000  0.70723000  0.62629000  1.0
  C  C123  1  0.03073000  0.70619000  0.68388000  1.0
  C  C124  1  0.03040000  0.81331000  0.71926000  1.0
  C  C125  1  0.08976000  0.91874000  0.69356000  1.0
  C  C126  1  0.14630000  0.91390000  0.63544000  1.0
  C  C127  1  0.18758000  0.93011000  0.99476000  1.0
  C  C128  1  0.22598000  0.86247000  0.93595000  1.0
  C  C129  1  0.37225000  0.90322000  0.91638000  1.0
  C  C130  1  0.48486000  0.85285000  0.95768000  1.0
  C  C131  1  0.40996000  0.79321000  0.12658000  1.0
  C  C132  1  0.46857000  0.79411000  0.18403000  1.0
  C  C133  1  0.46934000  0.68692000  0.21932000  1.0
  C  C134  1  0.40984000  0.58155000  0.19369000  1.0
  C  C135  1  0.35283000  0.58648000  0.13572000  1.0
  N  N136  1  0.16012000  0.20202000  0.10531000  1.0
  N  N137  1  0.33899000  0.29756000  0.60572000  1.0
  N  N138  1  0.83990000  0.20201000  0.39467000  1.0
  N  N139  1  0.66098000  0.29757000  0.89428000  1.0
  N  N140  1  0.85389000  0.80953000  0.89716000  1.0
  N  N141  1  0.64744000  0.69096000  0.39675000  1.0
  N  N142  1  0.14612000  0.80950000  0.60284000  1.0
  N  N143  1  0.35256000  0.69097000  0.10324000  1.0
  O  O144  1  0.32273000  0.37084000  0.03963000  1.0
  O  O145  1  0.29797000  0.24603000  0.93858000  1.0
  O  O146  1  0.05893000  0.28795000  0.99712000  1.0
  O  O147  1  0.36312000  0.54835000  0.98882000  1.0
  O  O148  1  0.90861000  0.40073000  0.94458000  1.0
  O  O149  1  0.17859000  0.12661000  0.53911000  1.0
  O  O150  1  0.20225000  0.25502000  0.43885000  1.0
  O  O151  1  0.44101000  0.21162000  0.49758000  1.0
  O  O152  1  0.14001000  0.95066000  0.48626000  1.0
  O  O153  1  0.59174000  0.09888000  0.44511000  1.0
  O  O154  1  0.67727000  0.37080000  0.46036000  1.0
  O  O155  1  0.70207000  0.24599000  0.56144000  1.0
  O  O156  1  0.94107000  0.28796000  0.50290000  1.0
  O  O157  1  0.63682000  0.54830000  0.51116000  1.0
  O  O158  1  0.09138000  0.40075000  0.55543000  1.0
  O  O159  1  0.82142000  0.12661000  0.96088000  1.0
  O  O160  1  0.79774000  0.25503000  0.06116000  1.0
  O  O161  1  0.55901000  0.21165000  0.00244000  1.0
  O  O162  1  0.86000000  0.95067000  0.01373000  1.0
  O  O163  1  0.40826000  0.09893000  0.05489000  1.0
  O  O164  1  0.69647000  0.63289000  0.95624000  1.0
  O  O165  1  0.71576000  0.76369000  0.05611000  1.0
  O  O166  1  0.95589000  0.71899000  0.99928000  1.0
  O  O167  1  0.65587000  0.45784000  0.00629000  1.0
  O  O168  1  0.10764000  0.61333000  0.05425000  1.0
  O  O169  1  0.80348000  0.86772000  0.45623000  1.0
  O  O170  1  0.78387000  0.73563000  0.55571000  1.0
  O  O171  1  0.54362000  0.78099000  0.49884000  1.0
  O  O172  1  0.84550000  0.04190000  0.50716000  1.0
  O  O173  1  0.39132000  0.88605000  0.55410000  1.0
  O  O174  1  0.30352000  0.63288000  0.54377000  1.0
  O  O175  1  0.28422000  0.76366000  0.44386000  1.0
  O  O176  1  0.04408000  0.71901000  0.50072000  1.0
  O  O177  1  0.34414000  0.45783000  0.49373000  1.0
  O  O178  1  0.89234000  0.61330000  0.44576000  1.0
  O  O179  1  0.19656000  0.86772000  0.04378000  1.0
  O  O180  1  0.21616000  0.73567000  0.94427000  1.0
  O  O181  1  0.45636000  0.78100000  0.00116000  1.0
  O  O182  1  0.15449000  0.04190000  0.99287000  1.0
  O  O183  1  0.60870000  0.88600000  0.94590000  1.0
