# generated using pymatgen
data_AgH4C8O2F7
_symmetry_space_group_name_H-M   'P 1'
_cell_length_a   9.68360000
_cell_length_b   9.93501000
_cell_length_c   15.05030000
_cell_angle_alpha   105.11800000
_cell_angle_beta   93.54450000
_cell_angle_gamma   117.57300000
_symmetry_Int_Tables_number   1
_chemical_formula_structural   AgH4C8O2F7
_chemical_formula_sum   'Ag4 H16 C32 O8 F28'
_cell_volume   1210.54442062
_cell_formula_units_Z   4
loop_
 _symmetry_equiv_pos_site_id
 _symmetry_equiv_pos_as_xyz
  1  'x, y, z'
loop_
 _atom_site_type_symbol
 _atom_site_label
 _atom_site_symmetry_multiplicity
 _atom_site_fract_x
 _atom_site_fract_y
 _atom_site_fract_z
 _atom_site_occupancy
  Ag  Ag0  1  0.11369000  0.04007000  0.40664000  1.0
  Ag  Ag1  1  0.88631000  0.95993000  0.59336000  1.0
  Ag  Ag2  1  0.39322000  0.01909000  0.40070000  1.0
  Ag  Ag3  1  0.60678000  0.98091000  0.59929000  1.0
  H  H4  1  0.25966000  0.25681000  0.31953000  1.0
  H  H5  1  0.74034000  0.74319000  0.68047000  1.0
  H  H6  1  0.51689000  0.26410000  0.33630000  1.0
  H  H7  1  0.48311000  0.73590000  0.66370000  1.0
  H  H8  1  0.56812000  0.39913000  0.63800000  1.0
  H  H9  1  0.43188000  0.60086000  0.36200000  1.0
  H  H10  1  0.30825000  0.39044000  0.62160000  1.0
  H  H11  1  0.69175000  0.60955000  0.37840000  1.0
  H  H12  1  0.07285000  0.36509000  0.51005000  1.0
  H  H13  1  0.92715000  0.63491000  0.48995000  1.0
  H  H14  1  0.09125000  0.35568000  0.39261000  1.0
  H  H15  1  0.90875000  0.64432000  0.60739000  1.0
  H  H16  1  0.77152000  0.36044000  0.43509000  1.0
  H  H17  1  0.22848000  0.63956000  0.56491000  1.0
  H  H18  1  0.78446000  0.36869000  0.55462000  1.0
  H  H19  1  0.21554000  0.63131000  0.44538000  1.0
  C  C20  1  0.31584000  0.27105000  0.38914000  1.0
  C  C21  1  0.68416000  0.72895000  0.61086000  1.0
  C  C22  1  0.46613000  0.27492000  0.39895000  1.0
  C  C23  1  0.53387000  0.72508000  0.60105000  1.0
  C  C24  1  0.56628000  0.34023000  0.48901000  1.0
  C  C25  1  0.43372000  0.65977000  0.51099000  1.0
  C  C26  1  0.49836000  0.36440000  0.56805000  1.0
  C  C27  1  0.50164000  0.63560000  0.43195000  1.0
  C  C28  1  0.35276000  0.35947000  0.55902000  1.0
  C  C29  1  0.64724000  0.64053000  0.44098000  1.0
  C  C30  1  0.26619000  0.33005000  0.46995000  1.0
  C  C31  1  0.73382000  0.66995000  0.53005000  1.0
  C  C32  1  0.15900000  0.40139000  0.46503000  1.0
  C  C33  1  0.84100000  0.59861000  0.53497000  1.0
  C  C34  1  0.74383000  0.40764000  0.50168000  1.0
  C  C35  1  0.25617000  0.59236000  0.49832000  1.0
  C  C36  1  0.07120000  0.70329000  0.31071000  1.0
  C  C37  1  0.92881000  0.29671000  0.68929000  1.0
  C  C38  1  0.96855000  0.52043000  0.25369000  1.0
  C  C39  1  0.03145000  0.47957000  0.74631000  1.0
  C  C40  1  0.89481000  0.49318000  0.15084000  1.0
  C  C41  1  0.10519000  0.50681000  0.84916000  1.0
  C  C42  1  0.84857000  0.32802000  0.07689000  1.0
  C  C43  1  0.15144000  0.67198000  0.92311000  1.0
  C  C44  1  0.25598000  0.99071000  0.59941000  1.0
  C  C45  1  0.74402000  0.00929000  0.40059000  1.0
  C  C46  1  0.27011000  0.99879000  0.70544000  1.0
  C  C47  1  0.72989000  0.00121000  0.29456000  1.0
  C  C48  1  0.37760000  0.17450000  0.77372000  1.0
  C  C49  1  0.62240000  0.82550000  0.22628000  1.0
  C  C50  1  0.38028000  0.20436000  0.88126000  1.0
  C  C51  1  0.61972000  0.79564000  0.11874000  1.0
  O  O52  1  0.99094000  0.77326000  0.32782000  1.0
  O  O53  1  0.00905000  0.22673000  0.67219000  1.0
  O  O54  1  0.21894000  0.75637000  0.33090000  1.0
  O  O55  1  0.78105000  0.24363000  0.66910000  1.0
  O  O56  1  0.13175000  0.98028000  0.55956000  1.0
  O  O57  1  0.86825000  0.01973000  0.44044000  1.0
  O  O58  1  0.37326000  0.99849000  0.56447000  1.0
  O  O59  1  0.62674000  0.00151000  0.43553000  1.0
  F  F60  1  0.84661000  0.44657000  0.29720000  1.0
  F  F61  1  0.15339000  0.55342000  0.70280000  1.0
  F  F62  1  0.05791000  0.44547000  0.24999000  1.0
  F  F63  1  0.94210000  0.55453000  0.75000000  1.0
  F  F64  1  0.76042000  0.50580000  0.15073000  1.0
  F  F65  1  0.23957000  0.49420000  0.84927000  1.0
  F  F66  1  0.00362000  0.61144000  0.12115000  1.0
  F  F67  1  0.99637000  0.38856000  0.87885000  1.0
  F  F68  1  0.76677000  0.31138000  0.99491000  1.0
  F  F69  1  0.23323000  0.68862000  0.00509000  1.0
  F  F70  1  0.75429000  0.20693000  0.10822000  1.0
  F  F71  1  0.24572000  0.79306000  0.89177000  1.0
  F  F72  1  0.97881000  0.31653000  0.06014000  1.0
  F  F73  1  0.02119000  0.68347000  0.93986000  1.0
  F  F74  1  0.33436000  0.90703000  0.72132000  1.0
  F  F75  1  0.66564000  0.09297000  0.27868000  1.0
  F  F76  1  0.12219000  0.93730000  0.72765000  1.0
  F  F77  1  0.87781000  0.06270000  0.27235000  1.0
  F  F78  1  0.53116000  0.22528000  0.76319000  1.0
  F  F79  1  0.46884000  0.77472000  0.23682000  1.0
  F  F80  1  0.32786000  0.26959000  0.74750000  1.0
  F  F81  1  0.67214000  0.73042000  0.25250000  1.0
  F  F82  1  0.42581000  0.11172000  0.91193000  1.0
  F  F83  1  0.57419000  0.88828000  0.08807000  1.0
  F  F84  1  0.48642000  0.36061000  0.92899000  1.0
  F  F85  1  0.51359000  0.63939000  0.07101000  1.0
  F  F86  1  0.23574000  0.17286000  0.90003000  1.0
  F  F87  1  0.76427000  0.82715000  0.09997000  1.0
