# generated using pymatgen
data_LiH8C2IN2
_symmetry_space_group_name_H-M   'P 1'
_cell_length_a   4.89959000
_cell_length_b   5.95841000
_cell_length_c   10.24310000
_cell_angle_alpha   90.00010000
_cell_angle_beta   90.00040000
_cell_angle_gamma   77.37900000
_symmetry_Int_Tables_number   1
_chemical_formula_structural   LiH8C2IN2
_chemical_formula_sum   'Li2 H16 C4 I2 N4'
_cell_volume   291.80901349
_cell_formula_units_Z   2
loop_
 _symmetry_equiv_pos_site_id
 _symmetry_equiv_pos_as_xyz
  1  'x, y, z'
loop_
 _atom_site_type_symbol
 _atom_site_label
 _atom_site_symmetry_multiplicity
 _atom_site_fract_x
 _atom_site_fract_y
 _atom_site_fract_z
 _atom_site_occupancy
  Li  Li0  1  0.35552000  0.10317000  0.25000000  1.0
  Li  Li1  1  0.64448000  0.89683000  0.75000000  1.0
  H  H2  1  0.21552000  0.24148000  0.48954000  1.0
  H  H3  1  0.78447000  0.75853000  0.98954000  1.0
  H  H4  1  0.78448000  0.75853000  0.51046000  1.0
  H  H5  1  0.21553000  0.24148000  0.01046000  1.0
  H  H6  1  0.13567000  0.44434000  0.37860000  1.0
  H  H7  1  0.86433000  0.55566000  0.87860000  1.0
  H  H8  1  0.86433000  0.55566000  0.62140000  1.0
  H  H9  1  0.13567000  0.44434000  0.12140000  1.0
  H  H10  1  0.69752000  0.26203000  0.48604000  1.0
  H  H11  1  0.30248000  0.73798000  0.98604000  1.0
  H  H12  1  0.30248000  0.73797000  0.51396000  1.0
  H  H13  1  0.69752000  0.26203000  0.01396000  1.0
  H  H14  1  0.61970000  0.47125000  0.36106000  1.0
  H  H15  1  0.38029000  0.52875000  0.86106000  1.0
  H  H16  1  0.38030000  0.52875000  0.63894000  1.0
  H  H17  1  0.61971000  0.47125000  0.13894000  1.0
  C  C18  1  0.53395000  0.40451000  0.44873000  1.0
  C  C19  1  0.46605000  0.59549000  0.94873000  1.0
  C  C20  1  0.46605000  0.59549000  0.55127000  1.0
  C  C21  1  0.53395000  0.40451000  0.05127000  1.0
  I  I22  1  0.91877000  0.86362000  0.25000000  1.0
  I  I23  1  0.08123000  0.13638000  0.75000000  1.0
  N  N24  1  0.29230000  0.31029000  0.40917000  1.0
  N  N25  1  0.70770000  0.68971000  0.90916000  1.0
  N  N26  1  0.70770000  0.68971000  0.59084000  1.0
  N  N27  1  0.29230000  0.31029000  0.09083000  1.0
