# generated using pymatgen
data_CuH9C7SIN
_symmetry_space_group_name_H-M   'P 1'
_cell_length_a   7.60683000
_cell_length_b   9.39446000
_cell_length_c   14.78100000
_cell_angle_alpha   89.99990000
_cell_angle_beta   89.99990000
_cell_angle_gamma   69.22500000
_symmetry_Int_Tables_number   1
_chemical_formula_structural   CuH9C7SIN
_chemical_formula_sum   'Cu4 H36 C28 S4 I4 N4'
_cell_volume   987.60190139
_cell_formula_units_Z   4
loop_
 _symmetry_equiv_pos_site_id
 _symmetry_equiv_pos_as_xyz
  1  'x, y, z'
loop_
 _atom_site_type_symbol
 _atom_site_label
 _atom_site_symmetry_multiplicity
 _atom_site_fract_x
 _atom_site_fract_y
 _atom_site_fract_z
 _atom_site_occupancy
  Cu  Cu0  1  0.47070000  0.13425000  0.53733000  1.0
  Cu  Cu1  1  0.52931000  0.86575000  0.03733000  1.0
  Cu  Cu2  1  0.52930000  0.86574000  0.46267000  1.0
  Cu  Cu3  1  0.47069000  0.13425000  0.96267000  1.0
  H  H4  1  0.49913000  0.09556000  0.75000000  1.0
  H  H5  1  0.50087000  0.90444000  0.25000000  1.0
  H  H6  1  0.11461000  0.01100000  0.60343000  1.0
  H  H7  1  0.88539000  0.98900000  0.10343000  1.0
  H  H8  1  0.88539000  0.98900000  0.39657000  1.0
  H  H9  1  0.11461000  0.01100000  0.89657000  1.0
  H  H10  1  0.32980000  0.92476000  0.66272000  1.0
  H  H11  1  0.67020000  0.07524000  0.16272000  1.0
  H  H12  1  0.67020000  0.07524000  0.33728000  1.0
  H  H13  1  0.32980000  0.92476000  0.83728000  1.0
  H  H14  1  0.03060000  0.93124000  0.75000000  1.0
  H  H15  1  0.96940000  0.06877000  0.25000000  1.0
  H  H16  1  0.95817000  0.12992000  0.75000000  1.0
  H  H17  1  0.04183000  0.87008000  0.25000000  1.0
  H  H18  1  0.71329000  0.21402000  0.75000000  1.0
  H  H19  1  0.28671000  0.78598000  0.25000000  1.0
  H  H20  1  0.80488000  0.44499000  0.75000000  1.0
  H  H21  1  0.19512000  0.55501000  0.25000000  1.0
  H  H22  1  0.55572000  0.70262000  0.75000000  1.0
  H  H23  1  0.44428000  0.29738000  0.25000000  1.0
  H  H24  1  0.21652000  0.72636000  0.75000000  1.0
  H  H25  1  0.78348000  0.27364000  0.25000000  1.0
  H  H26  1  0.12985000  0.49697000  0.75000000  1.0
  H  H27  1  0.87015000  0.50304000  0.25000000  1.0
  H  H28  1  0.76629000  0.53248000  0.55183000  1.0
  H  H29  1  0.23371000  0.46752000  0.05183000  1.0
  H  H30  1  0.23371000  0.46751000  0.44817000  1.0
  H  H31  1  0.76628000  0.53248000  0.94817000  1.0
  H  H32  1  0.79855000  0.48625000  0.43422000  1.0
  H  H33  1  0.20145000  0.51375000  0.93422000  1.0
  H  H34  1  0.20145000  0.51374000  0.56578000  1.0
  H  H35  1  0.79855000  0.48625000  0.06578000  1.0
  H  H36  1  0.95848000  0.36650000  0.51464000  1.0
  H  H37  1  0.04152000  0.63350000  0.01464000  1.0
  H  H38  1  0.04151000  0.63349000  0.48536000  1.0
  H  H39  1  0.95848000  0.36651000  0.98536000  1.0
  C  C40  1  0.37106000  0.19828000  0.75000000  1.0
  C  C41  1  0.62894000  0.80172000  0.25000000  1.0
  C  C42  1  0.19446000  0.02040000  0.66368000  1.0
  C  C43  1  0.80554000  0.97960000  0.16368000  1.0
  C  C44  1  0.80554000  0.97960000  0.33632000  1.0
  C  C45  1  0.19446000  0.02040000  0.83632000  1.0
  C  C46  1  0.08352000  0.02613000  0.75000000  1.0
  C  C47  1  0.91648000  0.97387000  0.25000000  1.0
  C  C48  1  0.41857000  0.34033000  0.75000000  1.0
  C  C49  1  0.58143000  0.65967000  0.25000000  1.0
  C  C50  1  0.60709000  0.32776000  0.75000000  1.0
  C  C51  1  0.39291000  0.67224000  0.25000000  1.0
  C  C52  1  0.65671000  0.45710000  0.75000000  1.0
  C  C53  1  0.34329000  0.54290000  0.25000000  1.0
  C  C54  1  0.51653000  0.60159000  0.75000000  1.0
  C  C55  1  0.48347000  0.39840000  0.25000000  1.0
  C  C56  1  0.32747000  0.61483000  0.75000000  1.0
  C  C57  1  0.67253000  0.38517000  0.25000000  1.0
  C  C58  1  0.27793000  0.48531000  0.75000000  1.0
  C  C59  1  0.72207000  0.51470000  0.25000000  1.0
  C  C60  1  0.69590000  0.34569000  0.51014000  1.0
  C  C61  1  0.30410000  0.65431000  0.01014000  1.0
  C  C62  1  0.30409000  0.65431000  0.48986000  1.0
  C  C63  1  0.69591000  0.34568000  0.98986000  1.0
  C  C64  1  0.81095000  0.43832000  0.50274000  1.0
  C  C65  1  0.18905000  0.56168000  0.00274000  1.0
  C  C66  1  0.18904000  0.56167000  0.49726000  1.0
  C  C67  1  0.81095000  0.43832000  0.99726000  1.0
  S  S68  1  0.24247000  0.19454000  0.64617000  1.0
  S  S69  1  0.75753000  0.80546000  0.14617000  1.0
  S  S70  1  0.75753000  0.80546000  0.35383000  1.0
  S  S71  1  0.24247000  0.19455000  0.85383000  1.0
  I  I72  1  0.25949000  0.11824000  0.39825000  1.0
  I  I73  1  0.74051000  0.88175000  0.89825000  1.0
  I  I74  1  0.74051000  0.88175000  0.60175000  1.0
  I  I75  1  0.25949000  0.11825000  0.10175000  1.0
  N  N76  1  0.60507000  0.26909000  0.51639000  1.0
  N  N77  1  0.39493000  0.73091000  0.01639000  1.0
  N  N78  1  0.39492000  0.73091000  0.48361000  1.0
  N  N79  1  0.60508000  0.26909000  0.98361000  1.0
