# generated using pymatgen
data_CuH14C26(NO)4
_symmetry_space_group_name_H-M   'P 1'
_cell_length_a   9.20661000
_cell_length_b   10.62720000
_cell_length_c   11.69850000
_cell_angle_alpha   70.11920000
_cell_angle_beta   89.73540000
_cell_angle_gamma   75.13130000
_symmetry_Int_Tables_number   1
_chemical_formula_structural   CuH14C26(NO)4
_chemical_formula_sum   'Cu2 H28 C52 N8 O8'
_cell_volume   1036.02175490
_cell_formula_units_Z   2
loop_
 _symmetry_equiv_pos_site_id
 _symmetry_equiv_pos_as_xyz
  1  'x, y, z'
loop_
 _atom_site_type_symbol
 _atom_site_label
 _atom_site_symmetry_multiplicity
 _atom_site_fract_x
 _atom_site_fract_y
 _atom_site_fract_z
 _atom_site_occupancy
  Cu  Cu0  1  0.81326000  0.24944000  0.94729000  1.0
  Cu  Cu1  1  0.18674000  0.75056000  0.05271000  1.0
  H  H2  1  0.88627000  0.71537000  0.85806000  1.0
  H  H3  1  0.11374000  0.28463000  0.14194000  1.0
  H  H4  1  0.06910000  0.70826000  0.69967000  1.0
  H  H5  1  0.93091000  0.29174000  0.30033000  1.0
  H  H6  1  0.04895000  0.28571000  0.76206000  1.0
  H  H7  1  0.95105000  0.71429000  0.23794000  1.0
  H  H8  1  0.22544000  0.71200000  0.33877000  1.0
  H  H9  1  0.77456000  0.28799000  0.66123000  1.0
  H  H10  1  0.54184000  0.53517000  0.14548000  1.0
  H  H11  1  0.45815000  0.46483000  0.85451000  1.0
  H  H12  1  0.59970000  0.30285000  0.31167000  1.0
  H  H13  1  0.40030000  0.69715000  0.68833000  1.0
  H  H14  1  0.46223000  0.27588000  0.50191000  1.0
  H  H15  1  0.53778000  0.72412000  0.49809000  1.0
  H  H16  1  0.73461000  0.78708000  0.02876000  1.0
  H  H17  1  0.26539000  0.21292000  0.97124000  1.0
  H  H18  1  0.55041000  0.79497000  0.18655000  1.0
  H  H19  1  0.44959000  0.20503000  0.81346000  1.0
  H  H20  1  0.58594000  0.20936000  0.13805000  1.0
  H  H21  1  0.41405000  0.79064000  0.86195000  1.0
  H  H22  1  0.25741000  0.81263000  0.48356000  1.0
  H  H23  1  0.74259000  0.18737000  0.51644000  1.0
  H  H24  1  0.04290000  0.00083000  0.71844000  1.0
  H  H25  1  0.95710000  0.99916000  0.28156000  1.0
  H  H26  1  0.10016000  0.22748000  0.59846000  1.0
  H  H27  1  0.89984000  0.77251000  0.40154000  1.0
  H  H28  1  0.25301000  0.23775000  0.41991000  1.0
  H  H29  1  0.74699000  0.76225000  0.58009000  1.0
  C  C30  1  0.75680000  0.50138000  0.98300000  1.0
  C  C31  1  0.24321000  0.49863000  0.01700000  1.0
  C  C32  1  0.87075000  0.50741000  0.88937000  1.0
  C  C33  1  0.12926000  0.49259000  0.11063000  1.0
  C  C34  1  0.92370000  0.62308000  0.83284000  1.0
  C  C35  1  0.07631000  0.37692000  0.16716000  1.0
  C  C36  1  0.02570000  0.61858000  0.74517000  1.0
  C  C37  1  0.97431000  0.38142000  0.25484000  1.0
  C  C38  1  0.07190000  0.49728000  0.71500000  1.0
  C  C39  1  0.92811000  0.50272000  0.28501000  1.0
  C  C40  1  0.01619000  0.38343000  0.77889000  1.0
  C  C41  1  0.98382000  0.61657000  0.22111000  1.0
  C  C42  1  0.16746000  0.48995000  0.62113000  1.0
  C  C43  1  0.83254000  0.51005000  0.37888000  1.0
  C  C44  1  0.24611000  0.48676000  0.53729000  1.0
  C  C45  1  0.75390000  0.51324000  0.46271000  1.0
  C  C46  1  0.33179000  0.49221000  0.43584000  1.0
  C  C47  1  0.66821000  0.50779000  0.56416000  1.0
  C  C48  1  0.30926000  0.61893000  0.33720000  1.0
  C  C49  1  0.69074000  0.38107000  0.66280000  1.0
  C  C50  1  0.48358000  0.51987000  0.22867000  1.0
  C  C51  1  0.51642000  0.48013000  0.77132000  1.0
  C  C52  1  0.51498000  0.39015000  0.32189000  1.0
  C  C53  1  0.48502000  0.60985000  0.67811000  1.0
  C  C54  1  0.43924000  0.37536000  0.42677000  1.0
  C  C55  1  0.56076000  0.62463000  0.57323000  1.0
  C  C56  1  0.87309000  0.99625000  0.91229000  1.0
  C  C57  1  0.12691000  0.00376000  0.08771000  1.0
  C  C58  1  0.75956000  0.99043000  0.00573000  1.0
  C  C59  1  0.24044000  0.00957000  0.99427000  1.0
  C  C60  1  0.70151000  0.87695000  0.05777000  1.0
  C  C61  1  0.29849000  0.12305000  0.94223000  1.0
  C  C62  1  0.59936000  0.88150000  0.14519000  1.0
  C  C63  1  0.40064000  0.11850000  0.85481000  1.0
  C  C64  1  0.55583000  0.00091000  0.17829000  1.0
  C  C65  1  0.44417000  0.99909000  0.82171000  1.0
  C  C66  1  0.61748000  0.11266000  0.11943000  1.0
  C  C67  1  0.38251000  0.88734000  0.88057000  1.0
  C  C68  1  0.45371000  0.01069000  0.26719000  1.0
  C  C69  1  0.54629000  0.98931000  0.73281000  1.0
  C  C70  1  0.36697000  0.01946000  0.34512000  1.0
  C  C71  1  0.63303000  0.98054000  0.65488000  1.0
  C  C72  1  0.27243000  0.02400000  0.43980000  1.0
  C  C73  1  0.72757000  0.97600000  0.56020000  1.0
  C  C74  1  0.22661000  0.90555000  0.50868000  1.0
  C  C75  1  0.77339000  0.09445000  0.49132000  1.0
  C  C76  1  0.10565000  0.01178000  0.63763000  1.0
  C  C77  1  0.89435000  0.98822000  0.36237000  1.0
  C  C78  1  0.13920000  0.13641000  0.57192000  1.0
  C  C79  1  0.86080000  0.86359000  0.42808000  1.0
  C  C80  1  0.22380000  0.14294000  0.47256000  1.0
  C  C81  1  0.77620000  0.85706000  0.52744000  1.0
  N  N82  1  0.91867000  0.39017000  0.86266000  1.0
  N  N83  1  0.08133000  0.60983000  0.13734000  1.0
  N  N84  1  0.38191000  0.63257000  0.23632000  1.0
  N  N85  1  0.61809000  0.36743000  0.76367000  1.0
  N  N86  1  0.71632000  0.10514000  0.03680000  1.0
  N  N87  1  0.28368000  0.89486000  0.96320000  1.0
  N  N88  1  0.14782000  0.89829000  0.60555000  1.0
  N  N89  1  0.85218000  0.10171000  0.39445000  1.0
  O  O90  1  0.72295000  0.38368000  0.02706000  1.0
  O  O91  1  0.27705000  0.61633000  0.97294000  1.0
  O  O92  1  0.70247000  0.60468000  0.01243000  1.0
  O  O93  1  0.29753000  0.39532000  0.98757000  1.0
  O  O94  1  0.90906000  0.11326000  0.86944000  1.0
  O  O95  1  0.09094000  0.88674000  0.13056000  1.0
  O  O96  1  0.92818000  0.89335000  0.88233000  1.0
  O  O97  1  0.07182000  0.10664000  0.11767000  1.0
