# generated using pymatgen
data_CuH16C8N2O5
_symmetry_space_group_name_H-M   'P 1'
_cell_length_a   6.33870000
_cell_length_b   6.80465000
_cell_length_c   11.88930000
_cell_angle_alpha   90.00010000
_cell_angle_beta   89.99980000
_cell_angle_gamma   89.99990000
_symmetry_Int_Tables_number   1
_chemical_formula_structural   CuH16C8N2O5
_chemical_formula_sum   'Cu2 H32 C16 N4 O10'
_cell_volume   512.81683677
_cell_formula_units_Z   2
loop_
 _symmetry_equiv_pos_site_id
 _symmetry_equiv_pos_as_xyz
  1  'x, y, z'
loop_
 _atom_site_type_symbol
 _atom_site_label
 _atom_site_symmetry_multiplicity
 _atom_site_fract_x
 _atom_site_fract_y
 _atom_site_fract_z
 _atom_site_occupancy
  Cu  Cu0  1  0.33799000  0.25000000  0.25000000  1.0
  Cu  Cu1  1  0.66202000  0.75000000  0.75000000  1.0
  H  H2  1  0.78656000  0.25000000  0.31719000  1.0
  H  H3  1  0.21340000  0.75000000  0.81719000  1.0
  H  H4  1  0.78657000  0.25000000  0.18282000  1.0
  H  H5  1  0.21340000  0.75000000  0.68281000  1.0
  H  H6  1  0.13771000  0.25000000  0.93499000  1.0
  H  H7  1  0.86225000  0.75000000  0.43498000  1.0
  H  H8  1  0.13771000  0.25000000  0.56501000  1.0
  H  H9  1  0.86225000  0.75000000  0.06502000  1.0
  H  H10  1  0.04386000  0.57686000  0.32474000  1.0
  H  H11  1  0.95616000  0.07686000  0.82474000  1.0
  H  H12  1  0.04386000  0.92314000  0.32474000  1.0
  H  H13  1  0.04386000  0.57686000  0.17526000  1.0
  H  H14  1  0.95615000  0.42314000  0.67526000  1.0
  H  H15  1  0.04386000  0.92314000  0.17526000  1.0
  H  H16  1  0.95616000  0.07686000  0.67526000  1.0
  H  H17  1  0.95616000  0.42314000  0.82474000  1.0
  H  H18  1  0.37075000  0.58165000  0.07439000  1.0
  H  H19  1  0.62926000  0.08166000  0.57439000  1.0
  H  H20  1  0.37075000  0.91834000  0.07439000  1.0
  H  H21  1  0.37075000  0.58166000  0.42561000  1.0
  H  H22  1  0.62926000  0.41834000  0.92561000  1.0
  H  H23  1  0.37075000  0.91835000  0.42561000  1.0
  H  H24  1  0.62927000  0.08166000  0.92561000  1.0
  H  H25  1  0.62927000  0.41834000  0.57439000  1.0
  H  H26  1  0.61203000  0.57536000  0.15024000  1.0
  H  H27  1  0.38798000  0.07536000  0.65024000  1.0
  H  H28  1  0.61203000  0.92464000  0.15024000  1.0
  H  H29  1  0.61203000  0.57536000  0.34976000  1.0
  H  H30  1  0.38798000  0.42464000  0.84976000  1.0
  H  H31  1  0.61203000  0.92464000  0.34975000  1.0
  H  H32  1  0.38798000  0.07536000  0.84976000  1.0
  H  H33  1  0.38798000  0.42464000  0.65024000  1.0
  C  C34  1  0.11106000  0.25000000  0.02753000  1.0
  C  C35  1  0.88890000  0.75000000  0.52752000  1.0
  C  C36  1  0.11106000  0.25000000  0.47247000  1.0
  C  C37  1  0.88890000  0.75000000  0.97247000  1.0
  C  C38  1  0.12353000  0.63491000  0.25000000  1.0
  C  C39  1  0.87648000  0.13491000  0.75000000  1.0
  C  C40  1  0.12353000  0.86509000  0.25000000  1.0
  C  C41  1  0.87648000  0.36510000  0.75000000  1.0
  C  C42  1  0.45170000  0.63524000  0.14935000  1.0
  C  C43  1  0.54832000  0.13524000  0.64936000  1.0
  C  C44  1  0.45170000  0.86476000  0.14935000  1.0
  C  C45  1  0.45170000  0.63524000  0.35064000  1.0
  C  C46  1  0.54832000  0.36476000  0.85065000  1.0
  C  C47  1  0.45170000  0.86476000  0.35064000  1.0
  C  C48  1  0.54832000  0.13524000  0.85064000  1.0
  C  C49  1  0.54832000  0.36476000  0.64936000  1.0
  N  N50  1  0.34184000  0.55999000  0.25000000  1.0
  N  N51  1  0.65818000  0.05999000  0.75000000  1.0
  N  N52  1  0.34184000  0.94001000  0.25000000  1.0
  N  N53  1  0.65818000  0.44001000  0.75000000  1.0
  O  O54  1  0.69303000  0.25000000  0.25000000  1.0
  O  O55  1  0.30693000  0.75000000  0.75000000  1.0
  O  O56  1  0.28283000  0.25000000  0.08364000  1.0
  O  O57  1  0.71715000  0.75000000  0.58364000  1.0
  O  O58  1  0.28283000  0.25000000  0.41636000  1.0
  O  O59  1  0.71715000  0.75000000  0.91636000  1.0
  O  O60  1  0.92367000  0.25000000  0.06118000  1.0
  O  O61  1  0.07631000  0.75000000  0.56116000  1.0
  O  O62  1  0.92367000  0.25001000  0.43883000  1.0
  O  O63  1  0.07632000  0.74999000  0.93883000  1.0
