# generated using pymatgen
data_Cu3MoH35C36S5N6
_symmetry_space_group_name_H-M   'P 1'
_cell_length_a   11.20020000
_cell_length_b   11.42140000
_cell_length_c   17.44920000
_cell_angle_alpha   96.00080000
_cell_angle_beta   94.29950000
_cell_angle_gamma   95.61870000
_symmetry_Int_Tables_number   1
_chemical_formula_structural   Cu3MoH35C36S5N6
_chemical_formula_sum   'Cu6 Mo2 H70 C72 S10 N12'
_cell_volume   2201.03743623
_cell_formula_units_Z   2
loop_
 _symmetry_equiv_pos_site_id
 _symmetry_equiv_pos_as_xyz
  1  'x, y, z'
loop_
 _atom_site_type_symbol
 _atom_site_label
 _atom_site_symmetry_multiplicity
 _atom_site_fract_x
 _atom_site_fract_y
 _atom_site_fract_z
 _atom_site_occupancy
  Cu  Cu0  1  0.61325000  0.61695000  0.68554000  1.0
  Cu  Cu1  1  0.38676000  0.38304000  0.31446000  1.0
  Cu  Cu2  1  0.39901000  0.79995000  0.75833000  1.0
  Cu  Cu3  1  0.60099000  0.20004000  0.24167000  1.0
  Cu  Cu4  1  0.57427000  0.90280000  0.62205000  1.0
  Cu  Cu5  1  0.42569000  0.09718000  0.37794000  1.0
  Mo  Mo6  1  0.63920000  0.84002000  0.76128000  1.0
  Mo  Mo7  1  0.36080000  0.15997000  0.23871000  1.0
  H  H8  1  0.42427000  0.40930000  0.66743000  1.0
  H  H9  1  0.57573000  0.59069000  0.33256000  1.0
  H  H10  1  0.23647000  0.34319000  0.58438000  1.0
  H  H11  1  0.76353000  0.65680000  0.41561000  1.0
  H  H12  1  0.32414000  0.63118000  0.44902000  1.0
  H  H13  1  0.67587000  0.36883000  0.55098000  1.0
  H  H14  1  0.51090000  0.68412000  0.53716000  1.0
  H  H15  1  0.48912000  0.31588000  0.46283000  1.0
  H  H16  1  0.14015000  0.51164000  0.41315000  1.0
  H  H17  1  0.85986000  0.48838000  0.58684000  1.0
  H  H18  1  0.07675000  0.30825000  0.51124000  1.0
  H  H19  1  0.92325000  0.69177000  0.48874000  1.0
  H  H20  1  0.89333000  0.18776000  0.47550000  1.0
  H  H21  1  0.10669000  0.81227000  0.52450000  1.0
  H  H22  1  0.70864000  0.12961000  0.38658000  1.0
  H  H23  1  0.29137000  0.87040000  0.61342000  1.0
  H  H24  1  0.78783000  0.40963000  0.25916000  1.0
  H  H25  1  0.21217000  0.59035000  0.74082000  1.0
  H  H26  1  0.97726000  0.47637000  0.33878000  1.0
  H  H27  1  0.02275000  0.52363000  0.66119000  1.0
  H  H28  1  0.30439000  0.70836000  0.90252000  1.0
  H  H29  1  0.69562000  0.29161000  0.09748000  1.0
  H  H30  1  0.14996000  0.75841000  0.99306000  1.0
  H  H31  1  0.85005000  0.24155000  0.00694000  1.0
  H  H32  1  0.12689000  0.08260000  0.88689000  1.0
  H  H33  1  0.87311000  0.91737000  0.11311000  1.0
  H  H34  1  0.27908000  0.01808000  0.80071000  1.0
  H  H35  1  0.72092000  0.98190000  0.19929000  1.0
  H  H36  1  0.01943000  0.89257000  0.04437000  1.0
  H  H37  1  0.98057000  0.10739000  0.95563000  1.0
  H  H38  1  0.77412000  0.63470000  0.88309000  1.0
  H  H39  1  0.22588000  0.36529000  0.11690000  1.0
  H  H40  1  0.67032000  0.69782000  0.94294000  1.0
  H  H41  1  0.32967000  0.30216000  0.05704000  1.0
  H  H42  1  0.82777000  0.72974000  0.96869000  1.0
  H  H43  1  0.17223000  0.27023000  0.03129000  1.0
  H  H44  1  0.55052000  0.85023000  0.94871000  1.0
  H  H45  1  0.44948000  0.14975000  0.05128000  1.0
  H  H46  1  0.54118000  0.99744000  0.92749000  1.0
  H  H47  1  0.45882000  0.00254000  0.07251000  1.0
  H  H48  1  0.64431000  0.96848000  0.00385000  1.0
  H  H49  1  0.35569000  0.03149000  0.99614000  1.0
  H  H50  1  0.77979000  0.19545000  0.87332000  1.0
  H  H51  1  0.22020000  0.80453000  0.12669000  1.0
  H  H52  1  0.62389000  0.14356000  0.86914000  1.0
  H  H53  1  0.37610000  0.85642000  0.13086000  1.0
  H  H54  1  0.69600000  0.15876000  0.78313000  1.0
  H  H55  1  0.30399000  0.84123000  0.21687000  1.0
  H  H56  1  0.86823000  0.10363000  0.72933000  1.0
  H  H57  1  0.13175000  0.89636000  0.27066000  1.0
  H  H58  1  0.90006000  0.96287000  0.68552000  1.0
  H  H59  1  0.09994000  0.03713000  0.31448000  1.0
  H  H60  1  0.99566000  0.03810000  0.76406000  1.0
  H  H61  1  0.00433000  0.96190000  0.23594000  1.0
  H  H62  1  0.01230000  0.77154000  0.82357000  1.0
  H  H63  1  0.98770000  0.22846000  0.17642000  1.0
  H  H64  1  0.95080000  0.78234000  0.72819000  1.0
  H  H65  1  0.04919000  0.21765000  0.27179000  1.0
  H  H66  1  0.89076000  0.66860000  0.78028000  1.0
  H  H67  1  0.10924000  0.33139000  0.21971000  1.0
  H  H68  1  0.11635000  0.25846000  0.73843000  1.0
  H  H69  1  0.88367000  0.74160000  0.26163000  1.0
  H  H70  1  0.98295000  0.16040000  0.62648000  1.0
  H  H71  1  0.01706000  0.83970000  0.37357000  1.0
  H  H72  1  0.30140000  0.05034000  0.52580000  1.0
  H  H73  1  0.69858000  0.94970000  0.47425000  1.0
  H  H74  1  0.42195000  0.15299000  0.64337000  1.0
  H  H75  1  0.57806000  0.84704000  0.35667000  1.0
  H  H76  1  0.11099000  0.99349000  0.45262000  1.0
  H  H77  1  0.88901000  0.00661000  0.54742000  1.0
  C  C78  1  0.79970000  0.44279000  0.72742000  1.0
  C  C79  1  0.20030000  0.55721000  0.27258000  1.0
  C  C80  1  0.59371000  0.12021000  0.52738000  1.0
  C  C81  1  0.40622000  0.87978000  0.47261000  1.0
  C  C82  1  0.39896000  0.45630000  0.61842000  1.0
  C  C83  1  0.60104000  0.54369000  0.38157000  1.0
  C  C84  1  0.29380000  0.41991000  0.57160000  1.0
  C  C85  1  0.70620000  0.58008000  0.42839000  1.0
  C  C86  1  0.26177000  0.48324000  0.50947000  1.0
  C  C87  1  0.73824000  0.51677000  0.49053000  1.0
  C  C88  1  0.34268000  0.57996000  0.49708000  1.0
  C  C89  1  0.65734000  0.42005000  0.50292000  1.0
  C  C90  1  0.44697000  0.60983000  0.54598000  1.0
  C  C91  1  0.55305000  0.39017000  0.45402000  1.0
  C  C92  1  0.15116000  0.45463000  0.45911000  1.0
  C  C93  1  0.84885000  0.54538000  0.54087000  1.0
  C  C94  1  0.06510000  0.36539000  0.46537000  1.0
  C  C95  1  0.93490000  0.63462000  0.53461000  1.0
  C  C96  1  0.95486000  0.33588000  0.41489000  1.0
  C  C97  1  0.04515000  0.66414000  0.58509000  1.0
  C  C98  1  0.87455000  0.23848000  0.42739000  1.0
  C  C99  1  0.12546000  0.76154000  0.57260000  1.0
  C  C100  1  0.77104000  0.20551000  0.37823000  1.0
  C  C101  1  0.22897000  0.79450000  0.62176000  1.0
  C  C102  1  0.81561000  0.36144000  0.30707000  1.0
  C  C103  1  0.18439000  0.63856000  0.69291000  1.0
  C  C104  1  0.92172000  0.39873000  0.35265000  1.0
  C  C105  1  0.07829000  0.60127000  0.64732000  1.0
  C  C106  1  0.26169000  0.79010000  0.90083000  1.0
  C  C107  1  0.73832000  0.20987000  0.09917000  1.0
  C  C108  1  0.17589000  0.81865000  0.95116000  1.0
  C  C109  1  0.82411000  0.18132000  0.04884000  1.0
  C  C110  1  0.12258000  0.92479000  0.94789000  1.0
  C  C111  1  0.87742000  0.07518000  0.05211000  1.0
  C  C112  1  0.16179000  0.99782000  0.89239000  1.0
  C  C113  1  0.83821000  0.00215000  0.10761000  1.0
  C  C114  1  0.24747000  0.96259000  0.84397000  1.0
  C  C115  1  0.75253000  0.03738000  0.15603000  1.0
  C  C116  1  0.03277000  0.95337000  0.00062000  1.0
  C  C117  1  0.96723000  0.04658000  0.99938000  1.0
  C  C118  1  0.76290000  0.82030000  0.87606000  1.0
  C  C119  1  0.23710000  0.17968000  0.12393000  1.0
  C  C120  1  0.69794000  0.92198000  0.88982000  1.0
  C  C121  1  0.30206000  0.07800000  0.11017000  1.0
  C  C122  1  0.74073000  0.00892000  0.84146000  1.0
  C  C123  1  0.25927000  0.99107000  0.15854000  1.0
  C  C124  1  0.82866000  0.95890000  0.79625000  1.0
  C  C125  1  0.17133000  0.04109000  0.20374000  1.0
  C  C126  1  0.84207000  0.84241000  0.81734000  1.0
  C  C127  1  0.15792000  0.15758000  0.18265000  1.0
  C  C128  1  0.75787000  0.71470000  0.91972000  1.0
  C  C129  1  0.24213000  0.28528000  0.08027000  1.0
  C  C130  1  0.60363000  0.93526000  0.94535000  1.0
  C  C131  1  0.39637000  0.06471000  0.05464000  1.0
  C  C132  1  0.70760000  0.13243000  0.84171000  1.0
  C  C133  1  0.29239000  0.86755000  0.15829000  1.0
  C  C134  1  0.90094000  0.01916000  0.74068000  1.0
  C  C135  1  0.09905000  0.98084000  0.25931000  1.0
  C  C136  1  0.92807000  0.76183000  0.78568000  1.0
  C  C137  1  0.07193000  0.23816000  0.21431000  1.0
  C  C138  1  0.15487000  0.20865000  0.69109000  1.0
  C  C139  1  0.84515000  0.79141000  0.30896000  1.0
  C  C140  1  0.07943000  0.15285000  0.62794000  1.0
  C  C141  1  0.92058000  0.84723000  0.37211000  1.0
  C  C142  1  0.12998000  0.08906000  0.56722000  1.0
  C  C143  1  0.87002000  0.91101000  0.43283000  1.0
  C  C144  1  0.25644000  0.09342000  0.57251000  1.0
  C  C145  1  0.74356000  0.90662000  0.42754000  1.0
  C  C146  1  0.32393000  0.15133000  0.63841000  1.0
  C  C147  1  0.67608000  0.84871000  0.36164000  1.0
  C  C148  1  0.05935000  0.01904000  0.50140000  1.0
  C  C149  1  0.94065000  0.98106000  0.49864000  1.0
  S  S150  1  0.71239000  0.78003000  0.64631000  1.0
  S  S151  1  0.28759000  0.21997000  0.35368000  1.0
  S  S152  1  0.52860000  0.67681000  0.79535000  1.0
  S  S153  1  0.47140000  0.32317000  0.20464000  1.0
  S  S154  1  0.50127000  0.96737000  0.73275000  1.0
  S  S155  1  0.49872000  0.03261000  0.26725000  1.0
  S  S156  1  0.90884000  0.36585000  0.75017000  1.0
  S  S157  1  0.09117000  0.63414000  0.24981000  1.0
  S  S158  1  0.68439000  0.11555000  0.60385000  1.0
  S  S159  1  0.31555000  0.88445000  0.39615000  1.0
  N  N160  1  0.72181000  0.50076000  0.70979000  1.0
  N  N161  1  0.27820000  0.49923000  0.29020000  1.0
  N  N162  1  0.52774000  0.12056000  0.47115000  1.0
  N  N163  1  0.47220000  0.87942000  0.52884000  1.0
  N  N164  1  0.47481000  0.55117000  0.60682000  1.0
  N  N165  1  0.52520000  0.44882000  0.39317000  1.0
  N  N166  1  0.74102000  0.26519000  0.31810000  1.0
  N  N167  1  0.25899000  0.73481000  0.68189000  1.0
  N  N168  1  0.29745000  0.85991000  0.84737000  1.0
  N  N169  1  0.70255000  0.14007000  0.15262000  1.0
  N  N170  1  0.27526000  0.20699000  0.69839000  1.0
  N  N171  1  0.72476000  0.79306000  0.30166000  1.0
