# generated using pymatgen
data_Li3H17C22NO9
_symmetry_space_group_name_H-M   'P 1'
_cell_length_a   9.74613000
_cell_length_b   10.83340000
_cell_length_c   11.50240000
_cell_angle_alpha   116.12600000
_cell_angle_beta   92.87050000
_cell_angle_gamma   110.60800000
_symmetry_Int_Tables_number   1
_chemical_formula_structural   Li3H17C22NO9
_chemical_formula_sum   'Li6 H34 C44 N2 O18'
_cell_volume   989.75574176
_cell_formula_units_Z   2
loop_
 _symmetry_equiv_pos_site_id
 _symmetry_equiv_pos_as_xyz
  1  'x, y, z'
loop_
 _atom_site_type_symbol
 _atom_site_label
 _atom_site_symmetry_multiplicity
 _atom_site_fract_x
 _atom_site_fract_y
 _atom_site_fract_z
 _atom_site_occupancy
  Li  Li0  1  0.93107000  0.45531000  0.66290000  1.0
  Li  Li1  1  0.06892000  0.54470000  0.33709000  1.0
  Li  Li2  1  0.76554000  0.22959000  0.79471000  1.0
  Li  Li3  1  0.23447000  0.77041000  0.20530000  1.0
  Li  Li4  1  0.71488000  0.17885000  0.50421000  1.0
  Li  Li5  1  0.28512000  0.82115000  0.49580000  1.0
  H  H6  1  0.79705000  0.65224000  0.61345000  1.0
  H  H7  1  0.20295000  0.34776000  0.38654000  1.0
  H  H8  1  0.64048000  0.79858000  0.67311000  1.0
  H  H9  1  0.35952000  0.20143000  0.32688000  1.0
  H  H10  1  0.50427000  0.30833000  0.06773000  1.0
  H  H11  1  0.49574000  0.69166000  0.93227000  1.0
  H  H12  1  0.31529000  0.41944000  0.12373000  1.0
  H  H13  1  0.68471000  0.58055000  0.87627000  1.0
  H  H14  1  0.99940000  0.84939000  0.25497000  1.0
  H  H15  1  0.00060000  0.15061000  0.74504000  1.0
  H  H16  1  0.85225000  0.00567000  0.31631000  1.0
  H  H17  1  0.14776000  0.99433000  0.68369000  1.0
  H  H18  1  0.47966000  0.17636000  0.59953000  1.0
  H  H19  1  0.52033000  0.82364000  0.40046000  1.0
  H  H20  1  0.18685000  0.46447000  0.72870000  1.0
  H  H21  1  0.81315000  0.53553000  0.27129000  1.0
  H  H22  1  0.81303000  0.91869000  0.01037000  1.0
  H  H23  1  0.18697000  0.08130000  0.98963000  1.0
  H  H24  1  0.73724000  0.04007000  0.12102000  1.0
  H  H25  1  0.26276000  0.95992000  0.87899000  1.0
  H  H26  1  0.93597000  0.10196000  0.14739000  1.0
  H  H27  1  0.06403000  0.89803000  0.85261000  1.0
  H  H28  1  0.18455000  0.65436000  0.69046000  1.0
  H  H29  1  0.81545000  0.34564000  0.30953000  1.0
  H  H30  1  0.06573000  0.66190000  0.60006000  1.0
  H  H31  1  0.93428000  0.33811000  0.39994000  1.0
  H  H32  1  0.88617000  0.48548000  0.89902000  1.0
  H  H33  1  0.11383000  0.51452000  0.10098000  1.0
  H  H34  1  0.02206000  0.44175000  0.86401000  1.0
  H  H35  1  0.97795000  0.55825000  0.13599000  1.0
  H  H36  1  0.59568000  0.14522000  0.29828000  1.0
  H  H37  1  0.40431000  0.85478000  0.70173000  1.0
  H  H38  1  0.52726000  0.97162000  0.26857000  1.0
  H  H39  1  0.47273000  0.02838000  0.73144000  1.0
  C  C40  1  0.48436000  0.39396000  0.63116000  1.0
  C  C41  1  0.51564000  0.60605000  0.36884000  1.0
  C  C42  1  0.63227000  0.45294000  0.60966000  1.0
  C  C43  1  0.36773000  0.54706000  0.39033000  1.0
  C  C44  1  0.68452000  0.60374000  0.62706000  1.0
  C  C45  1  0.31548000  0.39626000  0.37294000  1.0
  C  C46  1  0.59803000  0.68454000  0.65998000  1.0
  C  C47  1  0.40198000  0.31547000  0.34003000  1.0
  C  C48  1  0.44972000  0.62522000  0.68203000  1.0
  C  C49  1  0.55028000  0.37479000  0.31797000  1.0
  C  C50  1  0.39928000  0.47644000  0.66815000  1.0
  C  C51  1  0.60073000  0.52357000  0.33186000  1.0
  C  C52  1  0.39443000  0.28924000  0.77062000  1.0
  C  C53  1  0.60558000  0.71077000  0.22939000  1.0
  C  C54  1  0.47999000  0.27562000  0.86680000  1.0
  C  C55  1  0.52002000  0.72438000  0.13320000  1.0
  C  C56  1  0.44612000  0.32519000  0.99631000  1.0
  C  C57  1  0.55389000  0.67480000  0.00369000  1.0
  C  C58  1  0.34225000  0.38601000  0.02658000  1.0
  C  C59  1  0.65775000  0.61398000  0.97342000  1.0
  C  C60  1  0.26614000  0.41026000  0.93346000  1.0
  C  C61  1  0.73386000  0.58973000  0.06653000  1.0
  C  C62  1  0.30259000  0.36404000  0.80521000  1.0
  C  C63  1  0.69742000  0.63596000  0.19480000  1.0
  C  C64  1  0.25448000  0.16125000  0.53743000  1.0
  C  C65  1  0.74552000  0.83875000  0.46257000  1.0
  C  C66  1  0.19313000  0.01041000  0.42398000  1.0
  C  C67  1  0.80687000  0.98959000  0.57601000  1.0
  C  C68  1  0.04539000  0.96030000  0.34407000  1.0
  C  C69  1  0.95461000  0.03970000  0.65593000  1.0
  C  C70  1  0.96435000  0.04657000  0.37721000  1.0
  C  C71  1  0.03565000  0.95344000  0.62279000  1.0
  C  C72  1  0.02100000  0.19227000  0.49543000  1.0
  C  C73  1  0.97900000  0.80773000  0.50457000  1.0
  C  C74  1  0.17082000  0.24538000  0.57267000  1.0
  C  C75  1  0.82918000  0.75462000  0.42734000  1.0
  C  C76  1  0.41289000  0.24277000  0.62863000  1.0
  C  C77  1  0.58711000  0.75723000  0.37137000  1.0
  C  C78  1  0.25305000  0.39775000  0.69842000  1.0
  C  C79  1  0.74696000  0.60226000  0.30157000  1.0
  C  C80  1  0.82950000  0.03692000  0.07011000  1.0
  C  C81  1  0.17050000  0.96306000  0.92989000  1.0
  C  C82  1  0.83119000  0.10396000  0.98565000  1.0
  C  C83  1  0.16880000  0.89602000  0.01435000  1.0
  N  N84  1  0.83198000  0.15672000  0.91673000  1.0
  N  N85  1  0.16800000  0.84325000  0.08326000  1.0
  O  O86  1  0.71675000  0.38047000  0.58493000  1.0
  O  O87  1  0.28325000  0.61954000  0.41507000  1.0
  O  O88  1  0.37276000  0.70481000  0.71955000  1.0
  O  O89  1  0.62724000  0.29518000  0.28044000  1.0
  O  O90  1  0.57837000  0.22054000  0.83834000  1.0
  O  O91  1  0.42164000  0.77947000  0.16166000  1.0
  O  O92  1  0.16700000  0.46486000  0.96166000  1.0
  O  O93  1  0.83300000  0.53512000  0.03834000  1.0
  O  O94  1  0.26499000  0.92495000  0.39335000  1.0
  O  O95  1  0.73501000  0.07505000  0.60665000  1.0
  O  O96  1  0.94332000  0.27259000  0.52614000  1.0
  O  O97  1  0.05668000  0.72742000  0.47386000  1.0
  O  O98  1  0.07537000  0.63356000  0.66947000  1.0
  O  O99  1  0.92463000  0.36644000  0.33053000  1.0
  O  O100  1  0.92172000  0.42777000  0.82010000  1.0
  O  O101  1  0.07828000  0.57223000  0.17990000  1.0
  O  O102  1  0.60938000  0.07332000  0.32526000  1.0
  O  O103  1  0.39060000  0.92668000  0.67474000  1.0
