# generated using pymatgen
data_CdH16C16Br2(NO2)2
_symmetry_space_group_name_H-M   'P 1'
_cell_length_a   7.64129000
_cell_length_b   9.32119000
_cell_length_c   13.94940000
_cell_angle_alpha   74.56740000
_cell_angle_beta   86.84820000
_cell_angle_gamma   72.86840000
_symmetry_Int_Tables_number   1
_chemical_formula_structural   CdH16C16Br2(NO2)2
_chemical_formula_sum   'Cd2 H32 C32 Br4 N4 O8'
_cell_volume   914.94570011
_cell_formula_units_Z   2
loop_
 _symmetry_equiv_pos_site_id
 _symmetry_equiv_pos_as_xyz
  1  'x, y, z'
loop_
 _atom_site_type_symbol
 _atom_site_label
 _atom_site_symmetry_multiplicity
 _atom_site_fract_x
 _atom_site_fract_y
 _atom_site_fract_z
 _atom_site_occupancy
  Cd  Cd0  1  0.46256000  0.16007000  0.24871000  1.0
  Cd  Cd1  1  0.53744000  0.83993000  0.75129000  1.0
  H  H2  1  0.27609000  0.52152000  0.47342000  1.0
  H  H3  1  0.72391000  0.47848000  0.52658000  1.0
  H  H4  1  0.03266000  0.69546000  0.34771000  1.0
  H  H5  1  0.96734000  0.30454000  0.65229000  1.0
  H  H6  1  0.80982000  0.95216000  0.56504000  1.0
  H  H7  1  0.19018000  0.04784000  0.43496000  1.0
  H  H8  1  0.07003000  0.77385000  0.68119000  1.0
  H  H9  1  0.92997000  0.22615000  0.31881000  1.0
  H  H10  1  0.37553000  0.62165000  0.68558000  1.0
  H  H11  1  0.62446000  0.37835000  0.31441000  1.0
  H  H12  1  0.44546000  0.49232000  0.60827000  1.0
  H  H13  1  0.55454000  0.50768000  0.39173000  1.0
  H  H14  1  0.25433000  0.33208000  0.69521000  1.0
  H  H15  1  0.74568000  0.66792000  0.30479000  1.0
  H  H16  1  0.13524000  0.47628000  0.75533000  1.0
  H  H17  1  0.86477000  0.52371000  0.24467000  1.0
  H  H18  1  0.54843000  0.31040000  0.78763000  1.0
  H  H19  1  0.45157000  0.68960000  0.21237000  1.0
  H  H20  1  0.40926000  0.43088000  0.85746000  1.0
  H  H21  1  0.59073000  0.56912000  0.14254000  1.0
  H  H22  1  0.38591000  0.11291000  0.84228000  1.0
  H  H23  1  0.61409000  0.88709000  0.15772000  1.0
  H  H24  1  0.48142000  0.14928000  0.94445000  1.0
  H  H25  1  0.51858000  0.85072000  0.05555000  1.0
  H  H26  1  0.28871000  0.32375000  0.02897000  1.0
  H  H27  1  0.71129000  0.67624000  0.97103000  1.0
  H  H28  1  0.00137000  0.34832000  0.12726000  1.0
  H  H29  1  0.99863000  0.65167000  0.87275000  1.0
  H  H30  1  0.79807000  0.14755000  0.92681000  1.0
  H  H31  1  0.20193000  0.85245000  0.07319000  1.0
  H  H32  1  0.09417000  0.13173000  0.83587000  1.0
  H  H33  1  0.90583000  0.86826000  0.16413000  1.0
  C  C34  1  0.75394000  0.94964000  0.37251000  1.0
  C  C35  1  0.24606000  0.05036000  0.62749000  1.0
  C  C36  1  0.17101000  0.61985000  0.48900000  1.0
  C  C37  1  0.82899000  0.38015000  0.51100000  1.0
  C  C38  1  0.03426000  0.71611000  0.42077000  1.0
  C  C39  1  0.96574000  0.28389000  0.57923000  1.0
  C  C40  1  0.90226000  0.83956000  0.44647000  1.0
  C  C41  1  0.09774000  0.16044000  0.55353000  1.0
  C  C42  1  0.91144000  0.85937000  0.54152000  1.0
  C  C43  1  0.08856000  0.14062000  0.45848000  1.0
  C  C44  1  0.05284000  0.76145000  0.60702000  1.0
  C  C45  1  0.94716000  0.23855000  0.39298000  1.0
  C  C46  1  0.33145000  0.54523000  0.65096000  1.0
  C  C47  1  0.66855000  0.45477000  0.34904000  1.0
  C  C48  1  0.27055000  0.42167000  0.72893000  1.0
  C  C49  1  0.72946000  0.57833000  0.27107000  1.0
  C  C50  1  0.40921000  0.34627000  0.81557000  1.0
  C  C51  1  0.59079000  0.65373000  0.18443000  1.0
  C  C52  1  0.37869000  0.19884000  0.88357000  1.0
  C  C53  1  0.62131000  0.80116000  0.11643000  1.0
  C  C54  1  0.17297000  0.29109000  0.00884000  1.0
  C  C55  1  0.82704000  0.70891000  0.99116000  1.0
  C  C56  1  0.01404000  0.30286000  0.06217000  1.0
  C  C57  1  0.98596000  0.69714000  0.93783000  1.0
  C  C58  1  0.87732000  0.24739000  0.03568000  1.0
  C  C59  1  0.12268000  0.75261000  0.96432000  1.0
  C  C60  1  0.90134000  0.19014000  0.95138000  1.0
  C  C61  1  0.09866000  0.80985000  0.04862000  1.0
  C  C62  1  0.06343000  0.17971000  0.90026000  1.0
  C  C63  1  0.93657000  0.82029000  0.09975000  1.0
  C  C64  1  0.71819000  0.23673000  0.10374000  1.0
  C  C65  1  0.28180000  0.76327000  0.89626000  1.0
  Br  Br66  1  0.23878000  0.43415000  0.25358000  1.0
  Br  Br67  1  0.76121000  0.56585000  0.74641000  1.0
  Br  Br68  1  0.24778000  0.98476000  0.24855000  1.0
  Br  Br69  1  0.75223000  0.01523000  0.75145000  1.0
  N  N70  1  0.18096000  0.64555000  0.57943000  1.0
  N  N71  1  0.81904000  0.35445000  0.42057000  1.0
  N  N72  1  0.19761000  0.22596000  0.93137000  1.0
  N  N73  1  0.80239000  0.77403000  0.06864000  1.0
  O  O74  1  0.74764000  0.92080000  0.28922000  1.0
  O  O75  1  0.25236000  0.07920000  0.71078000  1.0
  O  O76  1  0.64385000  0.06453000  0.39824000  1.0
  O  O77  1  0.35616000  0.93547000  0.60176000  1.0
  O  O78  1  0.59654000  0.18322000  0.07939000  1.0
  O  O79  1  0.40345000  0.81678000  0.92061000  1.0
  O  O80  1  0.72028000  0.27485000  0.18417000  1.0
  O  O81  1  0.27972000  0.72515000  0.81583000  1.0
