# generated using pymatgen
data_Cr2Cd3H40(C6N5)4
_symmetry_space_group_name_H-M   'P 1'
_cell_length_a   7.63019000
_cell_length_b   7.80005000
_cell_length_c   15.97190000
_cell_angle_alpha   95.73790000
_cell_angle_beta   96.14610000
_cell_angle_gamma   91.42060000
_symmetry_Int_Tables_number   1
_chemical_formula_structural   Cr2Cd3H40(C6N5)4
_chemical_formula_sum   'Cr2 Cd3 H40 C24 N20'
_cell_volume   939.77670071
_cell_formula_units_Z   1
loop_
 _symmetry_equiv_pos_site_id
 _symmetry_equiv_pos_as_xyz
  1  'x, y, z'
loop_
 _atom_site_type_symbol
 _atom_site_label
 _atom_site_symmetry_multiplicity
 _atom_site_fract_x
 _atom_site_fract_y
 _atom_site_fract_z
 _atom_site_occupancy
  Cr  Cr0  1  0.00000000  0.00001000  0.50000000  1.0
  Cr  Cr1  1  0.50000000  0.50000000  0.00000000  1.0
  Cd  Cd2  1  0.41552000  0.64102000  0.33003000  1.0
  Cd  Cd3  1  0.58448000  0.35897000  0.66998000  1.0
  Cd  Cd4  1  0.00000000  0.00000000  0.00000000  1.0
  H  H5  1  0.04009000  0.63150000  0.32757000  1.0
  H  H6  1  0.95991000  0.36850000  0.67243000  1.0
  H  H7  1  0.10628000  0.43283000  0.31919000  1.0
  H  H8  1  0.89372000  0.56717000  0.68080000  1.0
  H  H9  1  0.89753000  0.48404000  0.19865000  1.0
  H  H10  1  0.10247000  0.51596000  0.80135000  1.0
  H  H11  1  0.10594000  0.41145000  0.17369000  1.0
  H  H12  1  0.89406000  0.58855000  0.82630000  1.0
  H  H13  1  0.14634000  0.01949000  0.17036000  1.0
  H  H14  1  0.85366000  0.98051000  0.82964000  1.0
  H  H15  1  0.94772000  0.08992000  0.16874000  1.0
  H  H16  1  0.05229000  0.91008000  0.83126000  1.0
  H  H17  1  0.20810000  0.71351000  0.16419000  1.0
  H  H18  1  0.79190000  0.28649000  0.83581000  1.0
  H  H19  1  0.03050000  0.64055000  0.08862000  1.0
  H  H20  1  0.96949000  0.35945000  0.91138000  1.0
  H  H21  1  0.55434000  0.38789000  0.43304000  1.0
  H  H22  1  0.44566000  0.61211000  0.56696000  1.0
  H  H23  1  0.38604000  0.29416000  0.37140000  1.0
  H  H24  1  0.61396000  0.70583000  0.62860000  1.0
  H  H25  1  0.82047000  0.80486000  0.16388000  1.0
  H  H26  1  0.17952000  0.19514000  0.83612000  1.0
  H  H27  1  0.97378000  0.85548000  0.25505000  1.0
  H  H28  1  0.02622000  0.14452000  0.74495000  1.0
  H  H29  1  0.70511000  0.19881000  0.35348000  1.0
  H  H30  1  0.29489000  0.80118000  0.64652000  1.0
  H  H31  1  0.71216000  0.38724000  0.30167000  1.0
  H  H32  1  0.28784000  0.61276000  0.69833000  1.0
  H  H33  1  0.30041000  0.99500000  0.31693000  1.0
  H  H34  1  0.69959000  0.00500000  0.68307000  1.0
  H  H35  1  0.49556000  0.98474000  0.36946000  1.0
  H  H36  1  0.50444000  0.01525000  0.63054000  1.0
  H  H37  1  0.39854000  0.24352000  0.22147000  1.0
  H  H38  1  0.60146000  0.75648000  0.77853000  1.0
  H  H39  1  0.60072000  0.20589000  0.18255000  1.0
  H  H40  1  0.39928000  0.79411000  0.81745000  1.0
  H  H41  1  0.43223000  0.93190000  0.18279000  1.0
  H  H42  1  0.56777000  0.06810000  0.81721000  1.0
  H  H43  1  0.63639000  0.93511000  0.24495000  1.0
  H  H44  1  0.36361000  0.06489000  0.75505000  1.0
  C  C45  1  0.03931000  0.52045000  0.20384000  1.0
  C  C46  1  0.96069000  0.47955000  0.79616000  1.0
  C  C47  1  0.06645000  0.67715000  0.15658000  1.0
  C  C48  1  0.93355000  0.32285000  0.84342000  1.0
  C  C49  1  0.96101000  0.83119000  0.18534000  1.0
  C  C50  1  0.03899000  0.16882000  0.81466000  1.0
  C  C51  1  0.62236000  0.28612000  0.31743000  1.0
  C  C52  1  0.37764000  0.71387000  0.68257000  1.0
  C  C53  1  0.52760000  0.18733000  0.23686000  1.0
  C  C54  1  0.47240000  0.81267000  0.76314000  1.0
  C  C55  1  0.82398000  0.82904000  0.42954000  1.0
  C  C56  1  0.17602000  0.17097000  0.57046000  1.0
  C  C57  1  0.50649000  0.99303000  0.24148000  1.0
  C  C58  1  0.49351000  0.00696000  0.75852000  1.0
  C  C59  1  0.19624000  0.83354000  0.48126000  1.0
  C  C60  1  0.80376000  0.16646000  0.51873000  1.0
  C  C61  1  0.52384000  0.56030000  0.12672000  1.0
  C  C62  1  0.47616000  0.43970000  0.87328000  1.0
  C  C63  1  0.05728000  0.11482000  0.39699000  1.0
  C  C64  1  0.94273000  0.88520000  0.60301000  1.0
  C  C65  1  0.30628000  0.33123000  0.01724000  1.0
  C  C66  1  0.69371000  0.66877000  0.98276000  1.0
  C  C67  1  0.67142000  0.30744000  0.01430000  1.0
  C  C68  1  0.32857000  0.69256000  0.98570000  1.0
  N  N69  1  0.11474000  0.54862000  0.29378000  1.0
  N  N70  1  0.88526000  0.45139000  0.70622000  1.0
  N  N71  1  0.01788000  0.98678000  0.14834000  1.0
  N  N72  1  0.98212000  0.01321000  0.85166000  1.0
  N  N73  1  0.49677000  0.37149000  0.37151000  1.0
  N  N74  1  0.50324000  0.62850000  0.62850000  1.0
  N  N75  1  0.71964000  0.72934000  0.39147000  1.0
  N  N76  1  0.28037000  0.27067000  0.60853000  1.0
  N  N77  1  0.42090000  0.94042000  0.31408000  1.0
  N  N78  1  0.57910000  0.05958000  0.68592000  1.0
  N  N79  1  0.30794000  0.73752000  0.46621000  1.0
  N  N80  1  0.69206000  0.26248000  0.53379000  1.0
  N  N81  1  0.52597000  0.58843000  0.20032000  1.0
  N  N82  1  0.47403000  0.41157000  0.79968000  1.0
  N  N83  1  0.10091000  0.18239000  0.33949000  1.0
  N  N84  1  0.89910000  0.81762000  0.66051000  1.0
  N  N85  1  0.19913000  0.23112000  0.03140000  1.0
  N  N86  1  0.80086000  0.76888000  0.96860000  1.0
  N  N87  1  0.76802000  0.19391000  0.02155000  1.0
  N  N88  1  0.23197000  0.80609000  0.97844000  1.0
