# generated using pymatgen
data_CdH12C6(SN5)2
_symmetry_space_group_name_H-M   'P 1'
_cell_length_a   6.71089000
_cell_length_b   13.30039558
_cell_length_c   15.70240000
_cell_angle_alpha   107.37056024
_cell_angle_beta   90.01540000
_cell_angle_gamma   104.59488044
_symmetry_Int_Tables_number   1
_chemical_formula_structural   CdH12C6(SN5)2
_chemical_formula_sum   'Cd4 H48 C24 S8 N40'
_cell_volume   1290.14181802
_cell_formula_units_Z   4
loop_
 _symmetry_equiv_pos_site_id
 _symmetry_equiv_pos_as_xyz
  1  'x, y, z'
loop_
 _atom_site_type_symbol
 _atom_site_label
 _atom_site_symmetry_multiplicity
 _atom_site_fract_x
 _atom_site_fract_y
 _atom_site_fract_z
 _atom_site_occupancy
  Cd  Cd0  1  0.62932000  0.75112000  0.62586000  1.0
  Cd  Cd1  1  0.87804000  0.24890000  0.87418000  1.0
  Cd  Cd2  1  0.37068000  0.24888000  0.37414000  1.0
  Cd  Cd3  1  0.12198000  0.75110000  0.12582000  1.0
  H  H4  1  0.69156000  0.58358000  0.70671000  1.0
  H  H5  1  0.10790000  0.41648000  0.79335000  1.0
  H  H6  1  0.30844000  0.41642000  0.29329000  1.0
  H  H7  1  0.89210000  0.58353000  0.20665000  1.0
  H  H8  1  0.41017000  0.68194000  0.93412000  1.0
  H  H9  1  0.72830000  0.31799000  0.56583000  1.0
  H  H10  1  0.58982000  0.31806000  0.06587000  1.0
  H  H11  1  0.27169000  0.68201000  0.43417000  1.0
  H  H12  1  0.70468000  0.97269000  0.56514000  1.0
  H  H13  1  0.73214000  0.02730000  0.93474000  1.0
  H  H14  1  0.29533000  0.02732000  0.43486000  1.0
  H  H15  1  0.26787000  0.97270000  0.06526000  1.0
  H  H16  1  0.78727000  0.81985000  0.30488000  1.0
  H  H17  1  0.96684000  0.18005000  0.19513000  1.0
  H  H18  1  0.21274000  0.18015000  0.69512000  1.0
  H  H19  1  0.03316000  0.81995000  0.80487000  1.0
  H  H20  1  0.78410000  0.48405000  0.81915000  1.0
  H  H21  1  0.30007000  0.51575000  0.68079000  1.0
  H  H22  1  0.21589000  0.51595000  0.18086000  1.0
  H  H23  1  0.69993000  0.48426000  0.31921000  1.0
  H  H24  1  0.53062000  0.42493000  0.76367000  1.0
  H  H25  1  0.10586000  0.57503000  0.73624000  1.0
  H  H26  1  0.46937000  0.57507000  0.23633000  1.0
  H  H27  1  0.89413000  0.42497000  0.26376000  1.0
  H  H28  1  0.41632000  0.48199000  0.91206000  1.0
  H  H29  1  0.93422000  0.51795000  0.58792000  1.0
  H  H30  1  0.58367000  0.51801000  0.08794000  1.0
  H  H31  1  0.06577000  0.48205000  0.41209000  1.0
  H  H32  1  0.66359000  0.57403000  0.95504000  1.0
  H  H33  1  0.08943000  0.42587000  0.54490000  1.0
  H  H34  1  0.33639000  0.42597000  0.04496000  1.0
  H  H35  1  0.91056000  0.57413000  0.45510000  1.0
  H  H36  1  0.92171000  0.10987000  0.49207000  1.0
  H  H37  1  0.81163000  0.89001000  0.00784000  1.0
  H  H38  1  0.07829000  0.89013000  0.50793000  1.0
  H  H39  1  0.18839000  0.10999000  0.99217000  1.0
  H  H40  1  0.65734000  0.09737000  0.46737000  1.0
  H  H41  1  0.55981000  0.90264000  0.03243000  1.0
  H  H42  1  0.34266000  0.90263000  0.53263000  1.0
  H  H43  1  0.44021000  0.09736000  0.96757000  1.0
  H  H44  1  0.65695000  0.98551000  0.31799000  1.0
  H  H45  1  0.67110000  0.01423000  0.18187000  1.0
  H  H46  1  0.34304000  0.01448000  0.68201000  1.0
  H  H47  1  0.32890000  0.98577000  0.81813000  1.0
  H  H48  1  0.93252000  0.03015000  0.33459000  1.0
  H  H49  1  0.90219000  0.96974000  0.16531000  1.0
  H  H50  1  0.06747000  0.96985000  0.66540000  1.0
  H  H51  1  0.09781000  0.03026000  0.83469000  1.0
  C  C52  1  0.55388000  0.66169000  0.81513000  1.0
  C  C53  1  0.89226000  0.33828000  0.68485000  1.0
  C  C54  1  0.44612000  0.33831000  0.18487000  1.0
  C  C55  1  0.10774000  0.66172000  0.31515000  1.0
  C  C56  1  0.63518000  0.49991000  0.80870000  1.0
  C  C57  1  0.13533000  0.50000000  0.69125000  1.0
  C  C58  1  0.36480000  0.50008000  0.19131000  1.0
  C  C59  1  0.86466000  0.50000000  0.30875000  1.0
  C  C60  1  0.54500000  0.54299000  0.89850000  1.0
  C  C61  1  0.00200000  0.45693000  0.60146000  1.0
  C  C62  1  0.45499000  0.45701000  0.10150000  1.0
  C  C63  1  0.99799000  0.54307000  0.39854000  1.0
  C  C64  1  0.73520000  0.86768000  0.44090000  1.0
  C  C65  1  0.86733000  0.13227000  0.05907000  1.0
  C  C66  1  0.26480000  0.13232000  0.55910000  1.0
  C  C67  1  0.13268000  0.86773000  0.94093000  1.0
  C  C68  1  0.77513000  0.05198000  0.45944000  1.0
  C  C69  1  0.72301000  0.94794000  0.04041000  1.0
  C  C70  1  0.22487000  0.94802000  0.54055000  1.0
  C  C71  1  0.27701000  0.05206000  0.95959000  1.0
  C  C72  1  0.79214000  0.99127000  0.36053000  1.0
  C  C73  1  0.80061000  0.00861000  0.13937000  1.0
  C  C74  1  0.20786000  0.00873000  0.63947000  1.0
  C  C75  1  0.19940000  0.99139000  0.86063000  1.0
  S  S76  1  0.51976000  0.77121000  0.78872000  1.0
  S  S77  1  0.74863000  0.22880000  0.71127000  1.0
  S  S78  1  0.48025000  0.22879000  0.21128000  1.0
  S  S79  1  0.25138000  0.77121000  0.28873000  1.0
  S  S80  1  0.69312000  0.74412000  0.45951000  1.0
  S  S81  1  0.94891000  0.25585000  0.04051000  1.0
  S  S82  1  0.30687000  0.25588000  0.54049000  1.0
  S  S83  1  0.05110000  0.74415000  0.95949000  1.0
  N  N84  1  0.65952000  0.59079000  0.77130000  1.0
  N  N85  1  0.06878000  0.40918000  0.72871000  1.0
  N  N86  1  0.34047000  0.40921000  0.22870000  1.0
  N  N87  1  0.93121000  0.59082000  0.27130000  1.0
  N  N88  1  0.47341000  0.63274000  0.88522000  1.0
  N  N89  1  0.84074000  0.36720000  0.61473000  1.0
  N  N90  1  0.52659000  0.36727000  0.11478000  1.0
  N  N91  1  0.15927000  0.63281000  0.38527000  1.0
  N  N92  1  0.71690000  0.96207000  0.49803000  1.0
  N  N93  1  0.75489000  0.03788000  0.00185000  1.0
  N  N94  1  0.28310000  0.03793000  0.50197000  1.0
  N  N95  1  0.24512000  0.96212000  0.99815000  1.0
  N  N96  1  0.79525000  0.88253000  0.36303000  1.0
  N  N97  1  0.91220000  0.11740000  0.13697000  1.0
  N  N98  1  0.20475000  0.11747000  0.63697000  1.0
  N  N99  1  0.08781000  0.88260000  0.86303000  1.0
  N  N100  1  0.67435000  0.94596000  0.67393000  1.0
  N  N101  1  0.72835000  0.05403000  0.82598000  1.0
  N  N102  1  0.32565000  0.05403000  0.32606000  1.0
  N  N103  1  0.27165000  0.94597000  0.17401000  1.0
  N  N104  1  0.70283000  0.00001000  0.74996000  1.0
  N  N105  1  0.29718000  0.00000000  0.25005000  1.0
  N  N106  1  0.59130000  0.55724000  0.56907000  1.0
  N  N107  1  0.03380000  0.44282000  0.93085000  1.0
  N  N108  1  0.40868000  0.44275000  0.43093000  1.0
  N  N109  1  0.96619000  0.55718000  0.06915000  1.0
  N  N110  1  0.50001000  0.50001000  0.50001000  1.0
  N  N111  1  0.00001000  0.50000000  0.00000000  1.0
  N  N112  1  0.97999000  0.75675000  0.67364000  1.0
  N  N113  1  0.22300000  0.24305000  0.82645000  1.0
  N  N114  1  0.02002000  0.24326000  0.32635000  1.0
  N  N115  1  0.77701000  0.75695000  0.17355000  1.0
  N  N116  1  0.11597000  0.73578000  0.62883000  1.0
  N  N117  1  0.38008000  0.26417000  0.87123000  1.0
  N  N118  1  0.88403000  0.26422000  0.37117000  1.0
  N  N119  1  0.61992000  0.73583000  0.12877000  1.0
  N  N120  1  0.25068000  0.71400000  0.58473000  1.0
  N  N121  1  0.53670000  0.28608000  0.91531000  1.0
  N  N122  1  0.74932000  0.28600000  0.41527000  1.0
  N  N123  1  0.46331000  0.71392000  0.08470000  1.0
