# generated using pymatgen
data_CdH8(C4N)4
_symmetry_space_group_name_H-M   'P 1'
_cell_length_a   7.35197000
_cell_length_b   8.27018000
_cell_length_c   12.47510000
_cell_angle_alpha   103.20500000
_cell_angle_beta   107.11900000
_cell_angle_gamma   90.03590000
_symmetry_Int_Tables_number   1
_chemical_formula_structural   CdH8(C4N)4
_chemical_formula_sum   'Cd2 H16 C32 N8'
_cell_volume   703.85960731
_cell_formula_units_Z   2
loop_
 _symmetry_equiv_pos_site_id
 _symmetry_equiv_pos_as_xyz
  1  'x, y, z'
loop_
 _atom_site_type_symbol
 _atom_site_label
 _atom_site_symmetry_multiplicity
 _atom_site_fract_x
 _atom_site_fract_y
 _atom_site_fract_z
 _atom_site_occupancy
  Cd  Cd0  1  0.00001000  0.00000000  0.50000000  1.0
  Cd  Cd1  1  0.50000000  0.50000000  0.50000000  1.0
  H  H2  1  0.88283000  0.76776000  0.22300000  1.0
  H  H3  1  0.65933000  0.73241000  0.77673000  1.0
  H  H4  1  0.11717000  0.23222000  0.77700000  1.0
  H  H5  1  0.34067000  0.26759000  0.22328000  1.0
  H  H6  1  0.59893000  0.60022000  0.07688000  1.0
  H  H7  1  0.52137000  0.90072000  0.92246000  1.0
  H  H8  1  0.40108000  0.39977000  0.92312000  1.0
  H  H9  1  0.47862000  0.09928000  0.07754000  1.0
  H  H10  1  0.25074000  0.88333000  0.26947000  1.0
  H  H11  1  0.98079000  0.61659000  0.73055000  1.0
  H  H12  1  0.74927000  0.11667000  0.73054000  1.0
  H  H13  1  0.01920000  0.38342000  0.26945000  1.0
  H  H14  1  0.54915000  0.03759000  0.40598000  1.0
  H  H15  1  0.14277000  0.46190000  0.59423000  1.0
  H  H16  1  0.45086000  0.96241000  0.59403000  1.0
  H  H17  1  0.85722000  0.53809000  0.40577000  1.0
  C  C18  1  0.73952000  0.79031000  0.22926000  1.0
  C  C19  1  0.50970000  0.70993000  0.77050000  1.0
  C  C20  1  0.26048000  0.20968000  0.77074000  1.0
  C  C21  1  0.49029000  0.29007000  0.22951000  1.0
  C  C22  1  0.58097000  0.69644000  0.14803000  1.0
  C  C23  1  0.43234000  0.80414000  0.85151000  1.0
  C  C24  1  0.41903000  0.30356000  0.85197000  1.0
  C  C25  1  0.56764000  0.19587000  0.14848000  1.0
  C  C26  1  0.39939000  0.72452000  0.16244000  1.0
  C  C27  1  0.23643000  0.77582000  0.83725000  1.0
  C  C28  1  0.60061000  0.27548000  0.83756000  1.0
  C  C29  1  0.76357000  0.22418000  0.16275000  1.0
  C  C30  1  0.38705000  0.85373000  0.25521000  1.0
  C  C31  1  0.13130000  0.64632000  0.74467000  1.0
  C  C32  1  0.61296000  0.14627000  0.74479000  1.0
  C  C33  1  0.86869000  0.35369000  0.25532000  1.0
  C  C34  1  0.55408000  0.93997000  0.33162000  1.0
  C  C35  1  0.22198000  0.55983000  0.66837000  1.0
  C  C36  1  0.44593000  0.06003000  0.66838000  1.0
  C  C37  1  0.77802000  0.44017000  0.33163000  1.0
  C  C38  1  0.23340000  0.62538000  0.08999000  1.0
  C  C39  1  0.14318000  0.87483000  0.90985000  1.0
  C  C40  1  0.76663000  0.37463000  0.91002000  1.0
  C  C41  1  0.85681000  0.12517000  0.09015000  1.0
  C  C42  1  0.08265000  0.54405000  0.03230000  1.0
  C  C43  1  0.05036000  0.95603000  0.96770000  1.0
  C  C44  1  0.91733000  0.45593000  0.96769000  1.0
  C  C45  1  0.94964000  0.04395000  0.03231000  1.0
  C  C46  1  0.85359000  0.22768000  0.55641000  1.0
  C  C47  1  0.29701000  0.27271000  0.44368000  1.0
  C  C48  1  0.14642000  0.77233000  0.44359000  1.0
  C  C49  1  0.70298000  0.72730000  0.55632000  1.0
  N  N50  1  0.72782000  0.90780000  0.32080000  1.0
  N  N51  1  0.40655000  0.59204000  0.67917000  1.0
  N  N52  1  0.27219000  0.09220000  0.67920000  1.0
  N  N53  1  0.59344000  0.40796000  0.32083000  1.0
  N  N54  1  0.77097000  0.34285000  0.58473000  1.0
  N  N55  1  0.18651000  0.15714000  0.41545000  1.0
  N  N56  1  0.22903000  0.65716000  0.41527000  1.0
  N  N57  1  0.81349000  0.84286000  0.58454000  1.0
