# generated using pymatgen
data_AgH14C8(NO2)2
_symmetry_space_group_name_H-M   'P 1'
_cell_length_a   8.44656000
_cell_length_b   9.67805000
_cell_length_c   14.02500000
_cell_angle_alpha   89.99980000
_cell_angle_beta   81.71260000
_cell_angle_gamma   89.99980000
_symmetry_Int_Tables_number   1
_chemical_formula_structural   AgH14C8(NO2)2
_chemical_formula_sum   'Ag4 H56 C32 N8 O16'
_cell_volume   1134.51865718
_cell_formula_units_Z   4
loop_
 _symmetry_equiv_pos_site_id
 _symmetry_equiv_pos_as_xyz
  1  'x, y, z'
loop_
 _atom_site_type_symbol
 _atom_site_label
 _atom_site_symmetry_multiplicity
 _atom_site_fract_x
 _atom_site_fract_y
 _atom_site_fract_z
 _atom_site_occupancy
  Ag  Ag0  1  0.10827000  0.59593000  0.83506000  1.0
  Ag  Ag1  1  0.39173000  0.09593000  0.66494000  1.0
  Ag  Ag2  1  0.89173000  0.40407000  0.16494000  1.0
  Ag  Ag3  1  0.60827000  0.90407000  0.33506000  1.0
  H  H4  1  0.63718000  0.10614000  0.98481000  1.0
  H  H5  1  0.86282000  0.60614000  0.51519000  1.0
  H  H6  1  0.36282000  0.89386000  0.01519000  1.0
  H  H7  1  0.13718000  0.39386000  0.48481000  1.0
  H  H8  1  0.55667000  0.03667000  0.09654000  1.0
  H  H9  1  0.94333000  0.53666000  0.40346000  1.0
  H  H10  1  0.44333000  0.96333000  0.90346000  1.0
  H  H11  1  0.05667000  0.46333000  0.59654000  1.0
  H  H12  1  0.37493000  0.21001000  0.96386000  1.0
  H  H13  1  0.12508000  0.71000000  0.53613000  1.0
  H  H14  1  0.62507000  0.79000000  0.03614000  1.0
  H  H15  1  0.87493000  0.29000000  0.46386000  1.0
  H  H16  1  0.28341000  0.13569000  0.07318000  1.0
  H  H17  1  0.21659000  0.63569000  0.42681000  1.0
  H  H18  1  0.71659000  0.86430000  0.92682000  1.0
  H  H19  1  0.78342000  0.36430000  0.57319000  1.0
  H  H20  1  0.46350000  0.27417000  0.16469000  1.0
  H  H21  1  0.03650000  0.77418000  0.33531000  1.0
  H  H22  1  0.53650000  0.72583000  0.83531000  1.0
  H  H23  1  0.96351000  0.22582000  0.66469000  1.0
  H  H24  1  0.56028000  0.34429000  0.05632000  1.0
  H  H25  1  0.93972000  0.84429000  0.44368000  1.0
  H  H26  1  0.43971000  0.65571000  0.94368000  1.0
  H  H27  1  0.06028000  0.15571000  0.55632000  1.0
  H  H28  1  0.22461000  0.28493000  0.27128000  1.0
  H  H29  1  0.27539000  0.78493000  0.22871000  1.0
  H  H30  1  0.77539000  0.71507000  0.72872000  1.0
  H  H31  1  0.72461000  0.21507000  0.77129000  1.0
  H  H32  1  0.15315000  0.44424000  0.32366000  1.0
  H  H33  1  0.34685000  0.94424000  0.17634000  1.0
  H  H34  1  0.84684000  0.55576000  0.67634000  1.0
  H  H35  1  0.65315000  0.05576000  0.82366000  1.0
  H  H36  1  0.36279000  0.42047000  0.28658000  1.0
  H  H37  1  0.13721000  0.92048000  0.21342000  1.0
  H  H38  1  0.63721000  0.57953000  0.71342000  1.0
  H  H39  1  0.86279000  0.07953000  0.78658000  1.0
  H  H40  1  0.04650000  0.60320000  0.22619000  1.0
  H  H41  1  0.45351000  0.10320000  0.27381000  1.0
  H  H42  1  0.95350000  0.39680000  0.77381000  1.0
  H  H43  1  0.54650000  0.89680000  0.72619000  1.0
  H  H44  1  0.05666000  0.83718000  0.05224000  1.0
  H  H45  1  0.44334000  0.33718000  0.44775000  1.0
  H  H46  1  0.94334000  0.16282000  0.94775000  1.0
  H  H47  1  0.55666000  0.66282000  0.55224000  1.0
  H  H48  1  0.90472000  0.75711000  0.13613000  1.0
  H  H49  1  0.59528000  0.25710000  0.36387000  1.0
  H  H50  1  0.09528000  0.24289000  0.86387000  1.0
  H  H51  1  0.40472000  0.74290000  0.63613000  1.0
  H  H52  1  0.91557000  0.72886000  0.00861000  1.0
  H  H53  1  0.58443000  0.22886000  0.49139000  1.0
  H  H54  1  0.08443000  0.27114000  0.99139000  1.0
  H  H55  1  0.41557000  0.77114000  0.50861000  1.0
  H  H56  1  0.30416000  0.45791000  0.03247000  1.0
  H  H57  1  0.19584000  0.95791000  0.46753000  1.0
  H  H58  1  0.69584000  0.54209000  0.96754000  1.0
  H  H59  1  0.80416000  0.04209000  0.53247000  1.0
  C  C60  1  0.52564000  0.06455000  0.02518000  1.0
  C  C61  1  0.97436000  0.56455000  0.47482000  1.0
  C  C62  1  0.47436000  0.93545000  0.97482000  1.0
  C  C63  1  0.02564000  0.43545000  0.52518000  1.0
  C  C64  1  0.39743000  0.17687000  0.03597000  1.0
  C  C65  1  0.10257000  0.67687000  0.46403000  1.0
  C  C66  1  0.60257000  0.82313000  0.96403000  1.0
  C  C67  1  0.89743000  0.32313000  0.53597000  1.0
  C  C68  1  0.44557000  0.30245000  0.09144000  1.0
  C  C69  1  0.05443000  0.80245000  0.40856000  1.0
  C  C70  1  0.55443000  0.69755000  0.90856000  1.0
  C  C71  1  0.94557000  0.19755000  0.59144000  1.0
  C  C72  1  0.24277000  0.39729000  0.26937000  1.0
  C  C73  1  0.25723000  0.89730000  0.23063000  1.0
  C  C74  1  0.75723000  0.60270000  0.73063000  1.0
  C  C75  1  0.74277000  0.10270000  0.76937000  1.0
  C  C76  1  0.22676000  0.45346000  0.17210000  1.0
  C  C77  1  0.27324000  0.95346000  0.32790000  1.0
  C  C78  1  0.77324000  0.54654000  0.82791000  1.0
  C  C79  1  0.72676000  0.04654000  0.67210000  1.0
  C  C80  1  0.10727000  0.55438000  0.16094000  1.0
  C  C81  1  0.39273000  0.05438000  0.33906000  1.0
  C  C82  1  0.89273000  0.44562000  0.83906000  1.0
  C  C83  1  0.60727000  0.94562000  0.66094000  1.0
  C  C84  1  0.09678000  0.62232000  0.07122000  1.0
  C  C85  1  0.40322000  0.12231000  0.42878000  1.0
  C  C86  1  0.90322000  0.37769000  0.92879000  1.0
  C  C87  1  0.59678000  0.87769000  0.57121000  1.0
  C  C88  1  0.98511000  0.74273000  0.06833000  1.0
  C  C89  1  0.51489000  0.24272000  0.43167000  1.0
  C  C90  1  0.01489000  0.25728000  0.93167000  1.0
  C  C91  1  0.48511000  0.75728000  0.56833000  1.0
  N  N92  1  0.32600000  0.41112000  0.09572000  1.0
  N  N93  1  0.17400000  0.91111000  0.40428000  1.0
  N  N94  1  0.67400000  0.58888000  0.90429000  1.0
  N  N95  1  0.82600000  0.08888000  0.59572000  1.0
  N  N96  1  0.38020000  0.38890000  0.72359000  1.0
  N  N97  1  0.11980000  0.88890000  0.77641000  1.0
  N  N98  1  0.61980000  0.61110000  0.27641000  1.0
  N  N99  1  0.88019000  0.11110000  0.22359000  1.0
  O  O100  1  0.18343000  0.58536000  0.99317000  1.0
  O  O101  1  0.31656000  0.08536000  0.50683000  1.0
  O  O102  1  0.81657000  0.41464000  0.00683000  1.0
  O  O103  1  0.68344000  0.91464000  0.49317000  1.0
  O  O104  1  0.51736000  0.33696000  0.69746000  1.0
  O  O105  1  0.98264000  0.83696000  0.80254000  1.0
  O  O106  1  0.48264000  0.66304000  0.30254000  1.0
  O  O107  1  0.01735000  0.16304000  0.19746000  1.0
  O  O108  1  0.25547000  0.31686000  0.71832000  1.0
  O  O109  1  0.24453000  0.81686000  0.78168000  1.0
  O  O110  1  0.74453000  0.68314000  0.28168000  1.0
  O  O111  1  0.75545000  0.18313000  0.21831000  1.0
  O  O112  1  0.36786000  0.51206000  0.75506000  1.0
  O  O113  1  0.13214000  0.01206000  0.74494000  1.0
  O  O114  1  0.63214000  0.48794000  0.24494000  1.0
  O  O115  1  0.86786000  0.98794000  0.25506000  1.0
