# generated using pymatgen
data_KH3C4(NO)6
_symmetry_space_group_name_H-M   'P 1'
_cell_length_a   7.60700000
_cell_length_b   9.25567000
_cell_length_c   13.13030000
_cell_angle_alpha   90.00010000
_cell_angle_beta   90.00040000
_cell_angle_gamma   73.92600000
_symmetry_Int_Tables_number   1
_chemical_formula_structural   KH3C4(NO)6
_chemical_formula_sum   'K4 H12 C16 N24 O24'
_cell_volume   888.33410034
_cell_formula_units_Z   4
loop_
 _symmetry_equiv_pos_site_id
 _symmetry_equiv_pos_as_xyz
  1  'x, y, z'
loop_
 _atom_site_type_symbol
 _atom_site_label
 _atom_site_symmetry_multiplicity
 _atom_site_fract_x
 _atom_site_fract_y
 _atom_site_fract_z
 _atom_site_occupancy
  K  K0  1  0.94157000  0.35410000  0.81786000  1.0
  K  K1  1  0.55843000  0.64590000  0.31786000  1.0
  K  K2  1  0.05843000  0.64591000  0.18214000  1.0
  K  K3  1  0.44157000  0.35411000  0.68214000  1.0
  H  H4  1  0.64472000  0.64063000  0.64951000  1.0
  H  H5  1  0.85528000  0.35938000  0.14952000  1.0
  H  H6  1  0.35528000  0.35939000  0.35049000  1.0
  H  H7  1  0.14473000  0.64062000  0.85049000  1.0
  H  H8  1  0.40387000  0.88203000  0.56950000  1.0
  H  H9  1  0.09613000  0.11797000  0.06950000  1.0
  H  H10  1  0.59613000  0.11797000  0.43050000  1.0
  H  H11  1  0.90388000  0.88203000  0.93050000  1.0
  H  H12  1  0.30405000  0.02185000  0.65780000  1.0
  H  H13  1  0.19594000  0.97815000  0.15780000  1.0
  H  H14  1  0.69594000  0.97816000  0.34220000  1.0
  H  H15  1  0.80407000  0.02185000  0.84220000  1.0
  C  C16  1  0.53565000  0.72234000  0.87557000  1.0
  C  C17  1  0.96435000  0.27765000  0.37558000  1.0
  C  C18  1  0.46435000  0.27767000  0.12443000  1.0
  C  C19  1  0.03565000  0.72234000  0.62443000  1.0
  C  C20  1  0.43228000  0.85745000  0.82622000  1.0
  C  C21  1  0.06772000  0.14254000  0.32623000  1.0
  C  C22  1  0.56772000  0.14256000  0.17377000  1.0
  C  C23  1  0.93228000  0.85745000  0.67378000  1.0
  C  C24  1  0.46472000  0.83330000  0.71996000  1.0
  C  C25  1  0.03527000  0.16670000  0.21996000  1.0
  C  C26  1  0.53527000  0.16671000  0.28004000  1.0
  C  C27  1  0.96473000  0.83329000  0.78004000  1.0
  C  C28  1  0.54698000  0.68817000  0.98399000  1.0
  C  C29  1  0.95302000  0.31181000  0.48400000  1.0
  C  C30  1  0.45302000  0.31184000  0.01601000  1.0
  C  C31  1  0.04698000  0.68817000  0.51600000  1.0
  N  N32  1  0.62519000  0.62481000  0.80621000  1.0
  N  N33  1  0.87480000  0.37519000  0.30621000  1.0
  N  N34  1  0.37481000  0.37521000  0.19379000  1.0
  N  N35  1  0.12519000  0.62480000  0.69379000  1.0
  N  N36  1  0.58195000  0.69371000  0.71359000  1.0
  N  N37  1  0.91805000  0.30629000  0.21360000  1.0
  N  N38  1  0.41805000  0.30630000  0.28641000  1.0
  N  N39  1  0.08195000  0.69370000  0.78641000  1.0
  N  N40  1  0.38556000  0.70632000  0.03837000  1.0
  N  N41  1  0.11445000  0.29366000  0.53837000  1.0
  N  N42  1  0.61444000  0.29369000  0.96163000  1.0
  N  N43  1  0.88555000  0.70633000  0.46163000  1.0
  N  N44  1  0.71485000  0.64405000  0.03346000  1.0
  N  N45  1  0.78515000  0.35595000  0.53347000  1.0
  N  N46  1  0.28515000  0.35597000  0.96654000  1.0
  N  N47  1  0.21485000  0.64403000  0.46654000  1.0
  N  N48  1  0.32136000  0.98832000  0.86827000  1.0
  N  N49  1  0.17863000  0.01167000  0.36826000  1.0
  N  N50  1  0.67863000  0.01169000  0.13173000  1.0
  N  N51  1  0.82137000  0.98832000  0.63174000  1.0
  N  N52  1  0.40050000  0.92387000  0.64141000  1.0
  N  N53  1  0.09949000  0.07613000  0.14140000  1.0
  N  N54  1  0.59949000  0.07614000  0.35859000  1.0
  N  N55  1  0.90052000  0.92386000  0.85860000  1.0
  O  O56  1  0.37648000  0.72821000  0.13327000  1.0
  O  O57  1  0.12353000  0.27177000  0.63327000  1.0
  O  O58  1  0.62353000  0.27180000  0.86673000  1.0
  O  O59  1  0.87647000  0.72823000  0.36673000  1.0
  O  O60  1  0.24268000  0.70690000  0.98835000  1.0
  O  O61  1  0.25732000  0.29309000  0.48835000  1.0
  O  O62  1  0.75732000  0.29311000  0.01165000  1.0
  O  O63  1  0.74268000  0.70690000  0.51165000  1.0
  O  O64  1  0.72802000  0.59228000  0.12341000  1.0
  O  O65  1  0.77199000  0.40772000  0.62341000  1.0
  O  O66  1  0.27198000  0.40773000  0.87659000  1.0
  O  O67  1  0.22801000  0.59226000  0.37659000  1.0
  O  O68  1  0.85529000  0.65192000  0.98518000  1.0
  O  O69  1  0.64472000  0.34808000  0.48519000  1.0
  O  O70  1  0.14471000  0.34810000  0.01482000  1.0
  O  O71  1  0.35528000  0.65190000  0.51482000  1.0
  O  O72  1  0.30441000  0.00027000  0.96295000  1.0
  O  O73  1  0.19558000  0.99972000  0.46295000  1.0
  O  O74  1  0.69558000  0.99974000  0.03705000  1.0
  O  O75  1  0.80441000  0.00027000  0.53706000  1.0
  O  O76  1  0.24022000  0.09257000  0.80797000  1.0
  O  O77  1  0.25977000  0.90742000  0.30797000  1.0
  O  O78  1  0.75978000  0.90745000  0.19203000  1.0
  O  O79  1  0.74023000  0.09256000  0.69204000  1.0
