# generated using pymatgen
data_ZnH11C10SN3Cl2
_symmetry_space_group_name_H-M   'P 1'
_cell_length_a   9.13485000
_cell_length_b   9.88940513
_cell_length_c   17.63260000
_cell_angle_alpha   105.83450752
_cell_angle_beta   90.01060000
_cell_angle_gamma   117.46919417
_symmetry_Int_Tables_number   1
_chemical_formula_structural   ZnH11C10SN3Cl2
_chemical_formula_sum   'Zn4 H44 C40 S4 N12 Cl8'
_cell_volume   1344.77707622
_cell_formula_units_Z   4
loop_
 _symmetry_equiv_pos_site_id
 _symmetry_equiv_pos_as_xyz
  1  'x, y, z'
loop_
 _atom_site_type_symbol
 _atom_site_label
 _atom_site_symmetry_multiplicity
 _atom_site_fract_x
 _atom_site_fract_y
 _atom_site_fract_z
 _atom_site_occupancy
  Zn  Zn0  1  0.99507000  0.42105000  0.62405000  1.0
  Zn  Zn1  1  0.57397000  0.57894000  0.87593000  1.0
  Zn  Zn2  1  0.00494000  0.57896000  0.37595000  1.0
  Zn  Zn3  1  0.42603000  0.42106000  0.12407000  1.0
  H  H4  1  0.67560000  0.47122000  0.63144000  1.0
  H  H5  1  0.20462000  0.52908000  0.86855000  1.0
  H  H6  1  0.32440000  0.52878000  0.36856000  1.0
  H  H7  1  0.79538000  0.47092000  0.13145000  1.0
  H  H8  1  0.47555000  0.37392000  0.57123000  1.0
  H  H9  1  0.10186000  0.62650000  0.92876000  1.0
  H  H10  1  0.52446000  0.62609000  0.42877000  1.0
  H  H11  1  0.89814000  0.37350000  0.07124000  1.0
  H  H12  1  0.65382000  0.51815000  0.54369000  1.0
  H  H13  1  0.13600000  0.48224000  0.95631000  1.0
  H  H14  1  0.34617000  0.48185000  0.45631000  1.0
  H  H15  1  0.86400000  0.51776000  0.04370000  1.0
  H  H16  1  0.67914000  0.98204000  0.31250000  1.0
  H  H17  1  0.69689000  0.01748000  0.18767000  1.0
  H  H18  1  0.32086000  0.01796000  0.68750000  1.0
  H  H19  1  0.30311000  0.98252000  0.81233000  1.0
  H  H20  1  0.47699000  0.87448000  0.33586000  1.0
  H  H21  1  0.60249000  0.12536000  0.16438000  1.0
  H  H22  1  0.52302000  0.12553000  0.66415000  1.0
  H  H23  1  0.39751000  0.87464000  0.83562000  1.0
  H  H24  1  0.64843000  0.86162000  0.37559000  1.0
  H  H25  1  0.78667000  0.13806000  0.12465000  1.0
  H  H26  1  0.35157000  0.13838000  0.62441000  1.0
  H  H27  1  0.21333000  0.86194000  0.87535000  1.0
  H  H28  1  0.11002000  0.12280000  0.31763000  1.0
  H  H29  1  0.98708000  0.87737000  0.18238000  1.0
  H  H30  1  0.88998000  0.87719000  0.68237000  1.0
  H  H31  1  0.01292000  0.12263000  0.81762000  1.0
  H  H32  1  0.14536000  0.23989000  0.20638000  1.0
  H  H33  1  0.90544000  0.76040000  0.29361000  1.0
  H  H34  1  0.85464000  0.76011000  0.79362000  1.0
  H  H35  1  0.09456000  0.23960000  0.70639000  1.0
  H  H36  1  0.64535000  0.30282000  0.35016000  1.0
  H  H37  1  0.34294000  0.69778000  0.15018000  1.0
  H  H38  1  0.35465000  0.69718000  0.64984000  1.0
  H  H39  1  0.65707000  0.30223000  0.84982000  1.0
  H  H40  1  0.65908000  0.42642000  0.24419000  1.0
  H  H41  1  0.23309000  0.57415000  0.25610000  1.0
  H  H42  1  0.34093000  0.57359000  0.75581000  1.0
  H  H43  1  0.76690000  0.42584000  0.74390000  1.0
  H  H44  1  0.89068000  0.15372000  0.48212000  1.0
  H  H45  1  0.73681000  0.84610000  0.01794000  1.0
  H  H46  1  0.10932000  0.84628000  0.51788000  1.0
  H  H47  1  0.26319000  0.15390000  0.98206000  1.0
  C  C48  1  0.60993000  0.41996000  0.57027000  1.0
  C  C49  1  0.19023000  0.58041000  0.92972000  1.0
  C  C50  1  0.39006000  0.58004000  0.42973000  1.0
  C  C51  1  0.80977000  0.41959000  0.07028000  1.0
  C  C52  1  0.64619000  0.29303000  0.52259000  1.0
  C  C53  1  0.35327000  0.70727000  0.97743000  1.0
  C  C54  1  0.35381000  0.70697000  0.47741000  1.0
  C  C55  1  0.64673000  0.29273000  0.02257000  1.0
  C  C56  1  0.54847000  0.16063000  0.45441000  1.0
  C  C57  1  0.38787000  0.83953000  0.04569000  1.0
  C  C58  1  0.45154000  0.83938000  0.54559000  1.0
  C  C59  1  0.61214000  0.16047000  0.95431000  1.0
  C  C60  1  0.64282000  0.08177000  0.42940000  1.0
  C  C61  1  0.56100000  0.91814000  0.07075000  1.0
  C  C62  1  0.35718000  0.91823000  0.57060000  1.0
  C  C63  1  0.43900000  0.08186000  0.92925000  1.0
  C  C64  1  0.60998000  0.94193000  0.36003000  1.0
  C  C65  1  0.66797000  0.05779000  0.14018000  1.0
  C  C66  1  0.39002000  0.05807000  0.63997000  1.0
  C  C67  1  0.33203000  0.94221000  0.85982000  1.0
  C  C68  1  0.37482000  0.19714000  0.34146000  1.0
  C  C69  1  0.17781000  0.80325000  0.15869000  1.0
  C  C70  1  0.62518000  0.80286000  0.65854000  1.0
  C  C71  1  0.82219000  0.19675000  0.84132000  1.0
  C  C72  1  0.23339000  0.18325000  0.30118000  1.0
  C  C73  1  0.05010000  0.81700000  0.19888000  1.0
  C  C74  1  0.76662000  0.81675000  0.69882000  1.0
  C  C75  1  0.94990000  0.18300000  0.80112000  1.0
  C  C76  1  0.25230000  0.25067000  0.24015000  1.0
  C  C77  1  0.00164000  0.74960000  0.25990000  1.0
  C  C78  1  0.74770000  0.74933000  0.75985000  1.0
  C  C79  1  0.99835000  0.25039000  0.74010000  1.0
  C  C80  1  0.53099000  0.28657000  0.32080000  1.0
  C  C81  1  0.24476000  0.71402000  0.17949000  1.0
  C  C82  1  0.46901000  0.71343000  0.67920000  1.0
  C  C83  1  0.75524000  0.28598000  0.82051000  1.0
  C  C84  1  0.53894000  0.35375000  0.26055000  1.0
  C  C85  1  0.18550000  0.64679000  0.23971000  1.0
  C  C86  1  0.46106000  0.64625000  0.73945000  1.0
  C  C87  1  0.81449000  0.35321000  0.76030000  1.0
  S  S88  1  0.34594000  0.10052000  0.41423000  1.0
  S  S89  1  0.24549000  0.89979000  0.08588000  1.0
  S  S90  1  0.65406000  0.89948000  0.58577000  1.0
  S  S91  1  0.75451000  0.10021000  0.91413000  1.0
  N  N92  1  0.78971000  0.29249000  0.53803000  1.0
  N  N93  1  0.49723000  0.70767000  0.96198000  1.0
  N  N94  1  0.21029000  0.70751000  0.46197000  1.0
  N  N95  1  0.50277000  0.29233000  0.03802000  1.0
  N  N96  1  0.78447000  0.16471000  0.48165000  1.0
  N  N97  1  0.61970000  0.83524000  0.01842000  1.0
  N  N98  1  0.21552000  0.83529000  0.51835000  1.0
  N  N99  1  0.38030000  0.16476000  0.98158000  1.0
  N  N100  1  0.40261000  0.33418000  0.21925000  1.0
  N  N101  1  0.06854000  0.66615000  0.28089000  1.0
  N  N102  1  0.59739000  0.66582000  0.78075000  1.0
  N  N103  1  0.93145000  0.33384000  0.71911000  1.0
  Cl  Cl104  1  0.15525000  0.31683000  0.56360000  1.0
  Cl  Cl105  1  0.83827000  0.68296000  0.93628000  1.0
  Cl  Cl106  1  0.84475000  0.68317000  0.43640000  1.0
  Cl  Cl107  1  0.16173000  0.31704000  0.06372000  1.0
  Cl  Cl108  1  0.06503000  0.67903000  0.67096000  1.0
  Cl  Cl109  1  0.38596000  0.32101000  0.82910000  1.0
  Cl  Cl110  1  0.93498000  0.32098000  0.32904000  1.0
  Cl  Cl111  1  0.61403000  0.67898000  0.17090000  1.0
