# generated using pymatgen
data_ZnSiH12C24N4(Cl2F3)2
_symmetry_space_group_name_H-M   'P 1'
_cell_length_a   7.74179000
_cell_length_b   14.00690000
_cell_length_c   14.00680000
_cell_angle_alpha   90.00480000
_cell_angle_beta   90.32510000
_cell_angle_gamma   89.67730000
_symmetry_Int_Tables_number   1
_chemical_formula_structural   ZnSiH12C24N4(Cl2F3)2
_chemical_formula_sum   'Zn1 Si1 H12 C24 N4 Cl4 F6'
_cell_volume   1518.82753647
_cell_formula_units_Z   1
loop_
 _symmetry_equiv_pos_site_id
 _symmetry_equiv_pos_as_xyz
  1  'x, y, z'
loop_
 _atom_site_type_symbol
 _atom_site_label
 _atom_site_symmetry_multiplicity
 _atom_site_fract_x
 _atom_site_fract_y
 _atom_site_fract_z
 _atom_site_occupancy
  Zn  Zn0  1  0.50000000  0.50000000  0.50000000  1.0
  Si  Si1  1  0.00000000  0.49999000  0.50000000  1.0
  H  H2  1  0.76631000  0.66232000  0.49996000  1.0
  H  H3  1  0.77510000  0.83960000  0.50001000  1.0
  H  H4  1  0.22763000  0.66278000  0.50009000  1.0
  H  H5  1  0.77234000  0.33723000  0.49993000  1.0
  H  H6  1  0.23366000  0.33767000  0.49997000  1.0
  H  H7  1  0.22489000  0.16040000  0.49992000  1.0
  H  H8  1  0.76630000  0.50007000  0.33768000  1.0
  H  H9  1  0.77508000  0.49999000  0.16041000  1.0
  H  H10  1  0.22763000  0.49994000  0.33722000  1.0
  H  H11  1  0.77233000  0.50009000  0.66277000  1.0
  H  H12  1  0.23366000  0.49986000  0.66232000  1.0
  H  H13  1  0.22490000  0.49991000  0.83960000  1.0
  C  C14  1  0.64725000  0.70399000  0.50005000  1.0
  C  C15  1  0.65160000  0.80287000  0.50007000  1.0
  C  C16  1  0.49648000  0.85590000  0.50008000  1.0
  C  C17  1  0.34132000  0.80320000  0.50011000  1.0
  C  C18  1  0.34684000  0.70370000  0.50010000  1.0
  C  C19  1  0.49772000  0.95652000  0.49999000  1.0
  C  C20  1  0.50228000  0.04349000  0.49991000  1.0
  C  C21  1  0.50351000  0.14411000  0.49986000  1.0
  C  C22  1  0.65866000  0.19680000  0.49988000  1.0
  C  C23  1  0.65313000  0.29631000  0.49990000  1.0
  C  C24  1  0.35271000  0.29601000  0.49991000  1.0
  C  C25  1  0.34838000  0.19712000  0.49987000  1.0
  C  C26  1  0.64725000  0.49999000  0.29601000  1.0
  C  C27  1  0.65160000  0.49993000  0.19713000  1.0
  C  C28  1  0.49647000  0.49990000  0.14410000  1.0
  C  C29  1  0.34131000  0.49991000  0.19680000  1.0
  C  C30  1  0.34684000  0.49993000  0.29629000  1.0
  C  C31  1  0.49771000  0.49993000  0.04347000  1.0
  C  C32  1  0.50228000  0.49998000  0.95653000  1.0
  C  C33  1  0.50350000  0.50004000  0.85590000  1.0
  C  C34  1  0.65867000  0.50007000  0.80320000  1.0
  C  C35  1  0.65313000  0.50007000  0.70370000  1.0
  C  C36  1  0.35271000  0.49996000  0.70399000  1.0
  C  C37  1  0.34838000  0.50000000  0.80288000  1.0
  N  N38  1  0.49728000  0.65515000  0.50006000  1.0
  N  N39  1  0.50269000  0.34485000  0.49992000  1.0
  N  N40  1  0.49728000  0.49998000  0.34485000  1.0
  N  N41  1  0.50268000  0.50000000  0.65514000  1.0
  Cl  Cl42  1  0.14459000  0.86081000  0.50005000  1.0
  Cl  Cl43  1  0.85540000  0.13921000  0.49995000  1.0
  Cl  Cl44  1  0.14458000  0.49995000  0.13918000  1.0
  Cl  Cl45  1  0.85539000  0.50006000  0.86081000  1.0
  F  F46  1  0.77210000  0.50038000  0.49961000  1.0
  F  F47  1  0.22788000  0.49961000  0.50040000  1.0
  F  F48  1  0.00000000  0.58571000  0.58574000  1.0
  F  F49  1  0.00001000  0.41427000  0.41427000  1.0
  F  F50  1  0.99971000  0.58572000  0.41428000  1.0
  F  F51  1  0.00028000  0.41426000  0.58572000  1.0
