# generated using pymatgen
data_MnH7C10N3O5
_symmetry_space_group_name_H-M   'P 1'
_cell_length_a   7.62672000
_cell_length_b   10.18970000
_cell_length_c   15.74580000
_cell_angle_alpha   89.99960000
_cell_angle_beta   90.00110000
_cell_angle_gamma   89.99970000
_symmetry_Int_Tables_number   1
_chemical_formula_structural   MnH7C10N3O5
_chemical_formula_sum   'Mn4 H28 C40 N12 O20'
_cell_volume   1223.66892432
_cell_formula_units_Z   4
loop_
 _symmetry_equiv_pos_site_id
 _symmetry_equiv_pos_as_xyz
  1  'x, y, z'
loop_
 _atom_site_type_symbol
 _atom_site_label
 _atom_site_symmetry_multiplicity
 _atom_site_fract_x
 _atom_site_fract_y
 _atom_site_fract_z
 _atom_site_occupancy
  Mn  Mn0  1  0.34364000  0.02195000  0.46623000  1.0
  Mn  Mn1  1  0.65636000  0.97805000  0.96623000  1.0
  Mn  Mn2  1  0.84363000  0.47805000  0.46623000  1.0
  Mn  Mn3  1  0.15636000  0.52195000  0.96624000  1.0
  H  H4  1  0.25502000  0.79177000  0.54582000  1.0
  H  H5  1  0.74498000  0.20823000  0.04583000  1.0
  H  H6  1  0.75501000  0.70823000  0.54583000  1.0
  H  H7  1  0.24498000  0.29176000  0.04583000  1.0
  H  H8  1  0.07535000  0.87417000  0.54189000  1.0
  H  H9  1  0.92465000  0.12583000  0.04190000  1.0
  H  H10  1  0.57534000  0.62583000  0.54189000  1.0
  H  H11  1  0.42465000  0.37417000  0.04190000  1.0
  H  H12  1  0.56436000  0.53157000  0.15187000  1.0
  H  H13  1  0.43565000  0.46843000  0.65188000  1.0
  H  H14  1  0.06436000  0.96843000  0.15187000  1.0
  H  H15  1  0.93565000  0.03158000  0.65187000  1.0
  H  H16  1  0.41901000  0.09740000  0.28277000  1.0
  H  H17  1  0.58098000  0.90260000  0.78278000  1.0
  H  H18  1  0.91901000  0.40260000  0.28277000  1.0
  H  H19  1  0.08098000  0.59740000  0.78278000  1.0
  H  H20  1  0.56680000  0.99624000  0.15707000  1.0
  H  H21  1  0.43320000  0.00376000  0.65708000  1.0
  H  H22  1  0.06680000  0.50377000  0.15708000  1.0
  H  H23  1  0.93319000  0.49624000  0.65708000  1.0
  H  H24  1  0.44630000  0.61648000  0.26735000  1.0
  H  H25  1  0.55370000  0.38352000  0.76736000  1.0
  H  H26  1  0.94630000  0.88352000  0.26736000  1.0
  H  H27  1  0.05371000  0.11648000  0.76735000  1.0
  H  H28  1  0.31075000  0.73339000  0.38797000  1.0
  H  H29  1  0.68926000  0.26661000  0.88797000  1.0
  H  H30  1  0.81075000  0.76661000  0.38797000  1.0
  H  H31  1  0.18925000  0.23339000  0.88797000  1.0
  C  C32  1  0.42670000  0.99119000  0.27580000  1.0
  C  C33  1  0.57330000  0.00881000  0.77580000  1.0
  C  C34  1  0.92670000  0.50881000  0.27580000  1.0
  C  C35  1  0.07329000  0.49119000  0.77580000  1.0
  C  C36  1  0.50844000  0.93478000  0.20618000  1.0
  C  C37  1  0.49156000  0.06522000  0.70618000  1.0
  C  C38  1  0.00844000  0.56522000  0.20618000  1.0
  C  C39  1  0.99155000  0.43478000  0.70618000  1.0
  C  C40  1  0.51726000  0.79741000  0.20063000  1.0
  C  C41  1  0.48275000  0.20259000  0.70063000  1.0
  C  C42  1  0.01726000  0.70259000  0.20064000  1.0
  C  C43  1  0.98275000  0.29741000  0.70063000  1.0
  C  C44  1  0.44294000  0.72342000  0.26675000  1.0
  C  C45  1  0.55706000  0.27658000  0.76675000  1.0
  C  C46  1  0.94295000  0.77659000  0.26675000  1.0
  C  C47  1  0.05707000  0.22342000  0.76675000  1.0
  C  C48  1  0.36674000  0.78822000  0.33500000  1.0
  C  C49  1  0.63326000  0.21178000  0.83500000  1.0
  C  C50  1  0.86675000  0.71178000  0.33500000  1.0
  C  C51  1  0.13326000  0.28822000  0.83500000  1.0
  C  C52  1  0.60647000  0.73680000  0.12951000  1.0
  C  C53  1  0.39353000  0.26321000  0.62951000  1.0
  C  C54  1  0.10647000  0.76320000  0.12951000  1.0
  C  C55  1  0.89354000  0.23680000  0.62950000  1.0
  C  C56  1  0.77692000  0.70538000  0.02012000  1.0
  C  C57  1  0.22308000  0.29463000  0.52012000  1.0
  C  C58  1  0.27692000  0.79462000  0.02012000  1.0
  C  C59  1  0.72308000  0.20538000  0.52011000  1.0
  C  C60  1  0.73185000  0.58106000  0.05073000  1.0
  C  C61  1  0.26815000  0.41893000  0.55073000  1.0
  C  C62  1  0.23185000  0.91893000  0.05073000  1.0
  C  C63  1  0.76815000  0.08106000  0.55073000  1.0
  C  C64  1  0.77498000  0.44252000  0.02988000  1.0
  C  C65  1  0.22501000  0.55748000  0.52987000  1.0
  C  C66  1  0.27498000  0.05747000  0.02988000  1.0
  C  C67  1  0.72502000  0.94252000  0.52988000  1.0
  C  C68  1  0.88585000  0.74742000  0.94640000  1.0
  C  C69  1  0.11414000  0.25258000  0.44639000  1.0
  C  C70  1  0.38585000  0.75257000  0.94640000  1.0
  C  C71  1  0.61415000  0.24743000  0.44639000  1.0
  N  N72  1  0.35854000  0.92005000  0.34025000  1.0
  N  N73  1  0.64146000  0.07995000  0.84026000  1.0
  N  N74  1  0.85854000  0.57996000  0.34026000  1.0
  N  N75  1  0.14145000  0.42005000  0.84026000  1.0
  N  N76  1  0.69621000  0.79995000  0.06871000  1.0
  N  N77  1  0.30379000  0.20006000  0.56871000  1.0
  N  N78  1  0.19621000  0.70005000  0.06871000  1.0
  N  N79  1  0.80379000  0.29995000  0.56871000  1.0
  N  N80  1  0.62233000  0.60471000  0.11816000  1.0
  N  N81  1  0.37766000  0.39528000  0.61816000  1.0
  N  N82  1  0.12234000  0.89529000  0.11816000  1.0
  N  N83  1  0.87768000  0.10471000  0.61816000  1.0
  O  O84  1  0.87390000  0.86725000  0.92410000  1.0
  O  O85  1  0.12610000  0.13275000  0.42409000  1.0
  O  O86  1  0.37390000  0.63275000  0.92409000  1.0
  O  O87  1  0.62609000  0.36725000  0.42409000  1.0
  O  O88  1  0.20494000  0.88324000  0.54306000  1.0
  O  O89  1  0.79506000  0.11676000  0.04306000  1.0
  O  O90  1  0.70494000  0.61676000  0.54305000  1.0
  O  O91  1  0.29506000  0.38324000  0.04306000  1.0
  O  O92  1  0.98597000  0.66442000  0.91119000  1.0
  O  O93  1  0.01403000  0.33558000  0.41118000  1.0
  O  O94  1  0.48596000  0.83558000  0.91118000  1.0
  O  O95  1  0.51403000  0.16442000  0.41118000  1.0
  O  O96  1  0.92283000  0.41453000  0.99801000  1.0
  O  O97  1  0.07715000  0.58546000  0.49800000  1.0
  O  O98  1  0.42284000  0.08546000  0.99801000  1.0
  O  O99  1  0.57716000  0.91454000  0.49800000  1.0
  O  O100  1  0.65875000  0.35773000  0.04997000  1.0
  O  O101  1  0.34125000  0.64227000  0.54995000  1.0
  O  O102  1  0.15876000  0.14227000  0.04997000  1.0
  O  O103  1  0.84124000  0.85773000  0.54996000  1.0
