# generated using pymatgen
data_AgH6C5(NO)3
_symmetry_space_group_name_H-M   'P 1'
_cell_length_a   6.64686000
_cell_length_b   11.21410000
_cell_length_c   19.83460000
_cell_angle_alpha   89.99990000
_cell_angle_beta   90.00020000
_cell_angle_gamma   90.00000000
_symmetry_Int_Tables_number   1
_chemical_formula_structural   AgH6C5(NO)3
_chemical_formula_sum   'Ag8 H48 C40 N24 O24'
_cell_volume   1478.44237789
_cell_formula_units_Z   8
loop_
 _symmetry_equiv_pos_site_id
 _symmetry_equiv_pos_as_xyz
  1  'x, y, z'
loop_
 _atom_site_type_symbol
 _atom_site_label
 _atom_site_symmetry_multiplicity
 _atom_site_fract_x
 _atom_site_fract_y
 _atom_site_fract_z
 _atom_site_occupancy
  Ag  Ag0  1  0.52455000  0.20648000  0.27331000  1.0
  Ag  Ag1  1  0.97545000  0.79352000  0.77331000  1.0
  Ag  Ag2  1  0.47545000  0.70648000  0.22669000  1.0
  Ag  Ag3  1  0.02455000  0.29352000  0.72669000  1.0
  Ag  Ag4  1  0.47545000  0.79352000  0.72669000  1.0
  Ag  Ag5  1  0.02455000  0.20648000  0.22669000  1.0
  Ag  Ag6  1  0.52455000  0.29352000  0.77331000  1.0
  Ag  Ag7  1  0.97545000  0.70648000  0.27331000  1.0
  H  H8  1  0.23639000  0.36887000  0.30356000  1.0
  H  H9  1  0.26361000  0.63113000  0.80356000  1.0
  H  H10  1  0.76362000  0.86887000  0.19644000  1.0
  H  H11  1  0.73638000  0.13113000  0.69644000  1.0
  H  H12  1  0.76361000  0.63113000  0.69644000  1.0
  H  H13  1  0.73639000  0.36887000  0.19644000  1.0
  H  H14  1  0.23639000  0.13113000  0.80356000  1.0
  H  H15  1  0.26362000  0.86887000  0.30356000  1.0
  H  H16  1  0.99141000  0.36603000  0.32893000  1.0
  H  H17  1  0.50859000  0.63397000  0.82893000  1.0
  H  H18  1  0.00860000  0.86603000  0.17107000  1.0
  H  H19  1  0.49140000  0.13397000  0.67107000  1.0
  H  H20  1  0.00859000  0.63397000  0.67107000  1.0
  H  H21  1  0.49141000  0.36603000  0.17107000  1.0
  H  H22  1  0.99141000  0.13397000  0.82893000  1.0
  H  H23  1  0.50860000  0.86603000  0.32893000  1.0
  H  H24  1  0.91213000  0.28503000  0.43361000  1.0
  H  H25  1  0.58788000  0.71497000  0.93361000  1.0
  H  H26  1  0.08788000  0.78503000  0.06639000  1.0
  H  H27  1  0.41212000  0.21497000  0.56639000  1.0
  H  H28  1  0.08787000  0.71497000  0.56639000  1.0
  H  H29  1  0.41213000  0.28503000  0.06639000  1.0
  H  H30  1  0.91213000  0.21497000  0.93361000  1.0
  H  H31  1  0.58788000  0.78503000  0.43361000  1.0
  H  H32  1  0.00293000  0.13676000  0.52349000  1.0
  H  H33  1  0.49707000  0.86324000  0.02349000  1.0
  H  H34  1  0.99706000  0.63675000  0.97651000  1.0
  H  H35  1  0.50294000  0.36324000  0.47651000  1.0
  H  H36  1  0.99706000  0.86325000  0.47651000  1.0
  H  H37  1  0.50294000  0.13676000  0.97651000  1.0
  H  H38  1  0.00293000  0.36324000  0.02349000  1.0
  H  H39  1  0.49706000  0.63676000  0.52349000  1.0
  H  H40  1  0.30926000  0.00881000  0.50653000  1.0
  H  H41  1  0.19074000  0.99119000  0.00653000  1.0
  H  H42  1  0.69074000  0.50880000  0.99347000  1.0
  H  H43  1  0.80926000  0.49119000  0.49347000  1.0
  H  H44  1  0.69074000  0.99120000  0.49347000  1.0
  H  H45  1  0.80926000  0.00881000  0.99347000  1.0
  H  H46  1  0.30926000  0.49120000  0.00653000  1.0
  H  H47  1  0.19074000  0.50881000  0.50653000  1.0
  H  H48  1  0.52576000  0.04661000  0.40403000  1.0
  H  H49  1  0.97424000  0.95339000  0.90403000  1.0
  H  H50  1  0.47424000  0.54661000  0.09597000  1.0
  H  H51  1  0.02577000  0.45339000  0.59597000  1.0
  H  H52  1  0.47423000  0.95339000  0.59597000  1.0
  H  H53  1  0.02576000  0.04661000  0.09597000  1.0
  H  H54  1  0.52576000  0.45339000  0.90403000  1.0
  H  H55  1  0.97424000  0.54661000  0.40403000  1.0
  C  C56  1  0.16965000  0.24067000  0.37269000  1.0
  C  C57  1  0.33035000  0.75933000  0.87269000  1.0
  C  C58  1  0.83035000  0.74067000  0.12731000  1.0
  C  C59  1  0.66965000  0.25933000  0.62731000  1.0
  C  C60  1  0.83035000  0.75933000  0.62731000  1.0
  C  C61  1  0.66965000  0.24067000  0.12731000  1.0
  C  C62  1  0.16965000  0.25933000  0.87269000  1.0
  C  C63  1  0.33035000  0.74067000  0.37269000  1.0
  C  C64  1  0.04598000  0.22982000  0.42961000  1.0
  C  C65  1  0.45402000  0.77018000  0.92961000  1.0
  C  C66  1  0.95402000  0.72982000  0.07039000  1.0
  C  C67  1  0.54598000  0.27018000  0.57039000  1.0
  C  C68  1  0.95402000  0.77018000  0.57039000  1.0
  C  C69  1  0.54598000  0.22982000  0.07039000  1.0
  C  C70  1  0.04598000  0.27018000  0.92961000  1.0
  C  C71  1  0.45402000  0.72982000  0.42962000  1.0
  C  C72  1  0.09583000  0.14670000  0.47856000  1.0
  C  C73  1  0.40417000  0.85329000  0.97856000  1.0
  C  C74  1  0.90417000  0.64670000  0.02144000  1.0
  C  C75  1  0.59583000  0.35329000  0.52144000  1.0
  C  C76  1  0.90417000  0.85330000  0.52144000  1.0
  C  C77  1  0.59583000  0.14670000  0.02144000  1.0
  C  C78  1  0.09583000  0.35329000  0.97856000  1.0
  C  C79  1  0.40417000  0.64671000  0.47857000  1.0
  C  C80  1  0.26775000  0.07639000  0.46973000  1.0
  C  C81  1  0.23225000  0.92361000  0.96973000  1.0
  C  C82  1  0.73224000  0.57639000  0.03027000  1.0
  C  C83  1  0.76776000  0.42361000  0.53027000  1.0
  C  C84  1  0.73224000  0.92361000  0.53027000  1.0
  C  C85  1  0.76776000  0.07639000  0.03027000  1.0
  C  C86  1  0.26774000  0.42361000  0.96973000  1.0
  C  C87  1  0.23224000  0.57639000  0.46973000  1.0
  C  C88  1  0.38644000  0.09542000  0.41308000  1.0
  C  C89  1  0.11356000  0.90458000  0.91308000  1.0
  C  C90  1  0.61356000  0.59542000  0.08692000  1.0
  C  C91  1  0.88645000  0.40458000  0.58692000  1.0
  C  C92  1  0.61356000  0.90458000  0.58692000  1.0
  C  C93  1  0.88644000  0.09542000  0.08692000  1.0
  C  C94  1  0.38644000  0.40458000  0.91308000  1.0
  C  C95  1  0.11356000  0.59542000  0.41308000  1.0
  N  N96  1  0.33865000  0.17577000  0.36516000  1.0
  N  N97  1  0.16135000  0.82423000  0.86516000  1.0
  N  N98  1  0.66135000  0.67577000  0.13484000  1.0
  N  N99  1  0.83865000  0.32423000  0.63484000  1.0
  N  N100  1  0.66134000  0.82423000  0.63484000  1.0
  N  N101  1  0.83866000  0.17577000  0.13484000  1.0
  N  N102  1  0.33865000  0.32423000  0.86516000  1.0
  N  N103  1  0.16135000  0.67577000  0.36516000  1.0
  N  N104  1  0.11776000  0.31609000  0.31909000  1.0
  N  N105  1  0.38224000  0.68391000  0.81909000  1.0
  N  N106  1  0.88224000  0.81609000  0.18090000  1.0
  N  N107  1  0.61776000  0.18391000  0.68091000  1.0
  N  N108  1  0.88223000  0.68391000  0.68090000  1.0
  N  N109  1  0.61776000  0.31609000  0.18090000  1.0
  N  N110  1  0.11776000  0.18391000  0.81909000  1.0
  N  N111  1  0.38224000  0.81609000  0.31910000  1.0
  N  N112  1  0.38017000  0.99017000  0.17579000  1.0
  N  N113  1  0.11984000  0.00983000  0.67579000  1.0
  N  N114  1  0.61984000  0.49017000  0.32421000  1.0
  N  N115  1  0.88017000  0.50983000  0.82421000  1.0
  N  N116  1  0.61983000  0.00983000  0.82421000  1.0
  N  N117  1  0.88017000  0.99017000  0.32421000  1.0
  N  N118  1  0.38017000  0.50983000  0.67579000  1.0
  N  N119  1  0.11984000  0.49017000  0.17579000  1.0
  O  O120  1  0.54149000  0.98704000  0.21058000  1.0
  O  O121  1  0.95851000  0.01296000  0.71058000  1.0
  O  O122  1  0.45851000  0.48704000  0.28942000  1.0
  O  O123  1  0.04149000  0.51296000  0.78942000  1.0
  O  O124  1  0.45851000  0.01296000  0.78942000  1.0
  O  O125  1  0.04149000  0.98704000  0.28942000  1.0
  O  O126  1  0.54149000  0.51296000  0.71058000  1.0
  O  O127  1  0.95851000  0.48704000  0.21058000  1.0
  O  O128  1  0.30299000  0.89405000  0.15354000  1.0
  O  O129  1  0.19701000  0.10595000  0.65354000  1.0
  O  O130  1  0.69701000  0.39405000  0.34646000  1.0
  O  O131  1  0.80299000  0.60595000  0.84646000  1.0
  O  O132  1  0.69701000  0.10596000  0.84646000  1.0
  O  O133  1  0.80299000  0.89405000  0.34646000  1.0
  O  O134  1  0.30299000  0.60595000  0.65354000  1.0
  O  O135  1  0.19701000  0.39405000  0.15354000  1.0
  O  O136  1  0.29714000  0.08915000  0.16359000  1.0
  O  O137  1  0.20286000  0.91085000  0.66359000  1.0
  O  O138  1  0.70286000  0.58915000  0.33641000  1.0
  O  O139  1  0.79714000  0.41085000  0.83641000  1.0
  O  O140  1  0.70286000  0.91085000  0.83641000  1.0
  O  O141  1  0.79714000  0.08915000  0.33641000  1.0
  O  O142  1  0.29714000  0.41085000  0.66359000  1.0
  O  O143  1  0.20286000  0.58915000  0.16359000  1.0
