# generated using pymatgen
data_Cd2H26C24N4O11
_symmetry_space_group_name_H-M   'P 1'
_cell_length_a   14.31870000
_cell_length_b   14.68480000
_cell_length_c   22.49580000
_cell_angle_alpha   89.99990000
_cell_angle_beta   99.42260000
_cell_angle_gamma   89.99990000
_symmetry_Int_Tables_number   1
_chemical_formula_structural   Cd2H26C24N4O11
_chemical_formula_sum   'Cd8 H104 C96 N16 O44'
_cell_volume   4666.30939494
_cell_formula_units_Z   4
loop_
 _symmetry_equiv_pos_site_id
 _symmetry_equiv_pos_as_xyz
  1  'x, y, z'
loop_
 _atom_site_type_symbol
 _atom_site_label
 _atom_site_symmetry_multiplicity
 _atom_site_fract_x
 _atom_site_fract_y
 _atom_site_fract_z
 _atom_site_occupancy
  Cd  Cd0  1  0.18240000  0.62928000  0.36210000  1.0
  Cd  Cd1  1  0.81760000  0.12928000  0.13790000  1.0
  Cd  Cd2  1  0.81760000  0.37072000  0.63790000  1.0
  Cd  Cd3  1  0.18240000  0.87072000  0.86210000  1.0
  Cd  Cd4  1  0.25892000  0.74749000  0.24161000  1.0
  Cd  Cd5  1  0.74108000  0.24749000  0.25839000  1.0
  Cd  Cd6  1  0.74107000  0.25251000  0.75839000  1.0
  Cd  Cd7  1  0.25893000  0.75251000  0.74161000  1.0
  H  H8  1  0.08136000  0.58378000  0.09218000  1.0
  H  H9  1  0.91864000  0.08378000  0.40782000  1.0
  H  H10  1  0.91864000  0.41622000  0.90782000  1.0
  H  H11  1  0.08136000  0.91622000  0.59218000  1.0
  H  H12  1  0.97641000  0.47503000  0.24613000  1.0
  H  H13  1  0.02359000  0.97503000  0.25387000  1.0
  H  H14  1  0.02359000  0.52497000  0.75387000  1.0
  H  H15  1  0.97641000  0.02497000  0.74613000  1.0
  H  H16  1  0.88160000  0.36183000  0.06993000  1.0
  H  H17  1  0.11840000  0.86183000  0.43007000  1.0
  H  H18  1  0.11840000  0.63817000  0.93007000  1.0
  H  H19  1  0.88160000  0.13817000  0.56993000  1.0
  H  H20  1  0.39405000  0.57093000  0.41152000  1.0
  H  H21  1  0.60594000  0.07093000  0.08848000  1.0
  H  H22  1  0.60595000  0.42907000  0.58847000  1.0
  H  H23  1  0.39405000  0.92907000  0.91153000  1.0
  H  H24  1  0.49143000  0.47896000  0.25008000  1.0
  H  H25  1  0.50857000  0.97896000  0.24992000  1.0
  H  H26  1  0.50857000  0.52103000  0.74992000  1.0
  H  H27  1  0.49144000  0.02103000  0.75008000  1.0
  H  H28  1  0.62124000  0.37648000  0.42318000  1.0
  H  H29  1  0.37876000  0.87648000  0.07682000  1.0
  H  H30  1  0.37876000  0.62352000  0.57682000  1.0
  H  H31  1  0.62124000  0.12352000  0.92318000  1.0
  H  H32  1  0.01321000  0.38311000  0.41271000  1.0
  H  H33  1  0.98679000  0.88311000  0.08729000  1.0
  H  H34  1  0.98679000  0.61689000  0.58729000  1.0
  H  H35  1  0.01321000  0.11689000  0.91271000  1.0
  H  H36  1  0.96895000  0.40742000  0.33618000  1.0
  H  H37  1  0.03105000  0.90742000  0.16382000  1.0
  H  H38  1  0.03105000  0.59258000  0.66382000  1.0
  H  H39  1  0.96895000  0.09258000  0.83618000  1.0
  H  H40  1  0.01442000  0.49739000  0.38637000  1.0
  H  H41  1  0.98558000  0.99739000  0.11363000  1.0
  H  H42  1  0.98559000  0.50261000  0.61363000  1.0
  H  H43  1  0.01441000  0.00261000  0.88637000  1.0
  H  H44  1  0.08949000  0.21047000  0.37419000  1.0
  H  H45  1  0.91051000  0.71047000  0.12581000  1.0
  H  H46  1  0.91051000  0.78953000  0.62581000  1.0
  H  H47  1  0.08949000  0.28953000  0.87419000  1.0
  H  H48  1  0.09817000  0.21067000  0.29633000  1.0
  H  H49  1  0.90183000  0.71067000  0.20367000  1.0
  H  H50  1  0.90183000  0.78933000  0.70367000  1.0
  H  H51  1  0.09817000  0.28934000  0.79633000  1.0
  H  H52  1  0.00754000  0.27490000  0.32171000  1.0
  H  H53  1  0.99246000  0.77490000  0.17829000  1.0
  H  H54  1  0.99246000  0.72510000  0.67829000  1.0
  H  H55  1  0.00754000  0.22510000  0.82171000  1.0
  H  H56  1  0.24172000  0.29393000  0.28342000  1.0
  H  H57  1  0.75828000  0.79393000  0.21658000  1.0
  H  H58  1  0.75828000  0.70607000  0.71658000  1.0
  H  H59  1  0.24172000  0.20607000  0.78342000  1.0
  H  H60  1  0.27192000  0.25469000  0.35918000  1.0
  H  H61  1  0.72808000  0.75469000  0.14082000  1.0
  H  H62  1  0.72808000  0.74531000  0.64082000  1.0
  H  H63  1  0.27192000  0.24531000  0.85917000  1.0
  H  H64  1  0.28600000  0.37266000  0.34220000  1.0
  H  H65  1  0.71400000  0.87266000  0.15780000  1.0
  H  H66  1  0.71400000  0.62734000  0.65780000  1.0
  H  H67  1  0.28600000  0.12734000  0.84220000  1.0
  H  H68  1  0.38922000  0.81495000  0.48095000  1.0
  H  H69  1  0.61078000  0.31495000  0.01905000  1.0
  H  H70  1  0.61078000  0.18505000  0.51905000  1.0
  H  H71  1  0.38922000  0.68505000  0.98095000  1.0
  H  H72  1  0.34451000  0.75312000  0.41391000  1.0
  H  H73  1  0.65549000  0.25313000  0.08609000  1.0
  H  H74  1  0.65549000  0.24687000  0.58609000  1.0
  H  H75  1  0.34452000  0.74688000  0.91391000  1.0
  H  H76  1  0.40661000  0.69510000  0.47772000  1.0
  H  H77  1  0.59339000  0.19511000  0.02229000  1.0
  H  H78  1  0.59339000  0.30490000  0.52228000  1.0
  H  H79  1  0.40661000  0.80490000  0.97772000  1.0
  H  H80  1  0.09062000  0.76054000  0.52143000  1.0
  H  H81  1  0.90938000  0.26054000  0.97857000  1.0
  H  H82  1  0.90938000  0.23945000  0.47857000  1.0
  H  H83  1  0.09062000  0.73946000  0.02143000  1.0
  H  H84  1  0.15158000  0.77105000  0.59747000  1.0
  H  H85  1  0.84842000  0.27106000  0.90253000  1.0
  H  H86  1  0.84842000  0.22895000  0.40253000  1.0
  H  H87  1  0.15158000  0.72895000  0.09747000  1.0
  H  H88  1  0.15490000  0.66616000  0.55787000  1.0
  H  H89  1  0.84509000  0.16616000  0.94213000  1.0
  H  H90  1  0.84510000  0.33384000  0.44213000  1.0
  H  H91  1  0.15490000  0.83384000  0.05787000  1.0
  H  H92  1  0.34939000  0.81216000  0.60252000  1.0
  H  H93  1  0.65061000  0.31216000  0.89748000  1.0
  H  H94  1  0.65061000  0.18784000  0.39748000  1.0
  H  H95  1  0.34939000  0.68784000  0.10252000  1.0
  H  H96  1  0.24865000  0.88337000  0.59043000  1.0
  H  H97  1  0.75135000  0.38338000  0.90957000  1.0
  H  H98  1  0.75135000  0.11663000  0.40957000  1.0
  H  H99  1  0.24865000  0.61663000  0.09043000  1.0
  H  H100  1  0.32939000  0.88739000  0.53846000  1.0
  H  H101  1  0.67061000  0.38740000  0.96154000  1.0
  H  H102  1  0.67061000  0.11261000  0.46154000  1.0
  H  H103  1  0.32938000  0.61261000  0.03846000  1.0
  H  H104  1  0.00437000  0.65276000  0.32030000  1.0
  H  H105  1  0.99563000  0.15276000  0.17970000  1.0
  H  H106  1  0.99563000  0.34724000  0.67970000  1.0
  H  H107  1  0.00437000  0.84724000  0.82030000  1.0
  H  H108  1  0.00783000  0.72596000  0.37147000  1.0
  H  H109  1  0.99217000  0.22596000  0.12853000  1.0
  H  H110  1  0.99217000  0.27404000  0.62853000  1.0
  H  H111  1  0.00783000  0.77404000  0.87147000  1.0
  C  C112  1  0.98117000  0.47338000  0.07411000  1.0
  C  C113  1  0.01883000  0.97338000  0.42589000  1.0
  C  C114  1  0.01884000  0.52662000  0.92589000  1.0
  C  C115  1  0.98116000  0.02662000  0.57411000  1.0
  C  C116  1  0.03685000  0.53590000  0.11155000  1.0
  C  C117  1  0.96315000  0.03590000  0.38845000  1.0
  C  C118  1  0.96315000  0.46410000  0.88845000  1.0
  C  C119  1  0.03685000  0.96410000  0.61155000  1.0
  C  C120  1  0.03515000  0.53632000  0.17331000  1.0
  C  C121  1  0.96485000  0.03632000  0.32669000  1.0
  C  C122  1  0.96485000  0.46368000  0.82669000  1.0
  C  C123  1  0.03515000  0.96368000  0.67331000  1.0
  C  C124  1  0.97814000  0.47407000  0.19799000  1.0
  C  C125  1  0.02186000  0.97406000  0.30201000  1.0
  C  C126  1  0.02186000  0.52594000  0.80202000  1.0
  C  C127  1  0.97814000  0.02594000  0.69798000  1.0
  C  C128  1  0.92382000  0.41043000  0.16117000  1.0
  C  C129  1  0.07618000  0.91043000  0.33883000  1.0
  C  C130  1  0.07618000  0.58957000  0.83883000  1.0
  C  C131  1  0.92382000  0.08957000  0.66118000  1.0
  C  C132  1  0.92523000  0.41019000  0.09906000  1.0
  C  C133  1  0.07477000  0.91019000  0.40094000  1.0
  C  C134  1  0.07477000  0.58981000  0.90094000  1.0
  C  C135  1  0.92523000  0.08981000  0.59906000  1.0
  C  C136  1  0.09570000  0.60299000  0.21323000  1.0
  C  C137  1  0.90430000  0.10299000  0.28677000  1.0
  C  C138  1  0.90430000  0.39701000  0.78677000  1.0
  C  C139  1  0.09570000  0.89701000  0.71323000  1.0
  C  C140  1  0.86378000  0.34296000  0.18795000  1.0
  C  C141  1  0.13622000  0.84296000  0.31204000  1.0
  C  C142  1  0.13622000  0.65704000  0.81205000  1.0
  C  C143  1  0.86378000  0.15704000  0.68796000  1.0
  C  C144  1  0.50795000  0.47349000  0.42416000  1.0
  C  C145  1  0.49205000  0.97349000  0.07583000  1.0
  C  C146  1  0.49205000  0.52651000  0.57583000  1.0
  C  C147  1  0.50795000  0.02651000  0.92417000  1.0
  C  C148  1  0.44066000  0.52922000  0.38927000  1.0
  C  C149  1  0.55934000  0.02922000  0.11073000  1.0
  C  C150  1  0.55934000  0.47078000  0.61073000  1.0
  C  C151  1  0.44066000  0.97078000  0.88927000  1.0
  C  C152  1  0.43535000  0.53177000  0.32686000  1.0
  C  C153  1  0.56465000  0.03177000  0.17314000  1.0
  C  C154  1  0.56465000  0.46822000  0.67313000  1.0
  C  C155  1  0.43536000  0.96822000  0.82687000  1.0
  C  C156  1  0.49560000  0.47682000  0.29883000  1.0
  C  C157  1  0.50439000  0.97682000  0.20117000  1.0
  C  C158  1  0.50440000  0.52318000  0.70117000  1.0
  C  C159  1  0.49561000  0.02318000  0.79883000  1.0
  C  C160  1  0.56182000  0.42041000  0.33352000  1.0
  C  C161  1  0.43818000  0.92040000  0.16648000  1.0
  C  C162  1  0.43818000  0.57959000  0.66647000  1.0
  C  C163  1  0.56182000  0.07959000  0.83353000  1.0
  C  C164  1  0.56800000  0.41889000  0.39620000  1.0
  C  C165  1  0.43200000  0.91889000  0.10380000  1.0
  C  C166  1  0.43200000  0.58110000  0.60380000  1.0
  C  C167  1  0.56800000  0.08111000  0.89620000  1.0
  C  C168  1  0.37071000  0.59795000  0.29013000  1.0
  C  C169  1  0.62929000  0.09795000  0.20987000  1.0
  C  C170  1  0.62929000  0.40205000  0.70986000  1.0
  C  C171  1  0.37071000  0.90205000  0.79014000  1.0
  C  C172  1  0.62726000  0.36190000  0.30466000  1.0
  C  C173  1  0.37273000  0.86190000  0.19534000  1.0
  C  C174  1  0.37274000  0.63810000  0.69534000  1.0
  C  C175  1  0.62726000  0.13810000  0.80466000  1.0
  C  C176  1  0.02381000  0.42621000  0.37435000  1.0
  C  C177  1  0.97619000  0.92621000  0.12565000  1.0
  C  C178  1  0.97619000  0.57379000  0.62565000  1.0
  C  C179  1  0.02380000  0.07379000  0.87435000  1.0
  C  C180  1  0.12245000  0.41296000  0.36067000  1.0
  C  C181  1  0.87755000  0.91296000  0.13933000  1.0
  C  C182  1  0.87755000  0.58704000  0.63933000  1.0
  C  C183  1  0.12245000  0.08704000  0.86067000  1.0
  C  C184  1  0.08132000  0.25308000  0.33333333  1.0
  C  C185  1  0.91868000  0.75308000  0.16667000  1.0
  C  C186  1  0.91868000  0.74692000  0.66666667  1.0
  C  C187  1  0.08132000  0.24692000  0.83333000  1.0
  C  C188  1  0.24223000  0.31216000  0.33088000  1.0
  C  C189  1  0.75777000  0.81216000  0.16912000  1.0
  C  C190  1  0.75777000  0.68784000  0.66912000  1.0
  C  C191  1  0.24223000  0.18784000  0.83088000  1.0
  C  C192  1  0.35668000  0.75107000  0.46331000  1.0
  C  C193  1  0.64332000  0.25107000  0.03669000  1.0
  C  C194  1  0.64332000  0.24893000  0.53669000  1.0
  C  C195  1  0.35668000  0.74893000  0.96331000  1.0
  C  C196  1  0.26550000  0.72872000  0.48478000  1.0
  C  C197  1  0.73450000  0.22872000  0.01522000  1.0
  C  C198  1  0.73450000  0.27128000  0.51522000  1.0
  C  C199  1  0.26550000  0.77128000  0.98478000  1.0
  C  C200  1  0.15379000  0.74043000  0.55344000  1.0
  C  C201  1  0.84621000  0.24044000  0.94656000  1.0
  C  C202  1  0.84621000  0.25956000  0.44656000  1.0
  C  C203  1  0.15379000  0.75957000  0.05344000  1.0
  C  C204  1  0.29589000  0.84242000  0.56755000  1.0
  C  C205  1  0.70411000  0.34242000  0.93245000  1.0
  C  C206  1  0.70411000  0.15758000  0.43245000  1.0
  C  C207  1  0.29589000  0.65758000  0.06755000  1.0
  N  N208  1  0.97796000  0.46839000  0.01094000  1.0
  N  N209  1  0.02204000  0.96839000  0.48906000  1.0
  N  N210  1  0.02204000  0.53161000  0.98906000  1.0
  N  N211  1  0.97796000  0.03161000  0.51094000  1.0
  N  N212  1  0.52024000  0.46853000  0.48769000  1.0
  N  N213  1  0.47976000  0.96853000  0.01231000  1.0
  N  N214  1  0.47976000  0.53147000  0.51231000  1.0
  N  N215  1  0.52024000  0.03147000  0.98769000  1.0
  N  N216  1  0.14591000  0.33051000  0.34099000  1.0
  N  N217  1  0.85410000  0.83051000  0.15901000  1.0
  N  N218  1  0.85410000  0.66949000  0.65901000  1.0
  N  N219  1  0.14590000  0.16949000  0.84099000  1.0
  N  N220  1  0.23975000  0.77175000  0.53219000  1.0
  N  N221  1  0.76025000  0.27175000  0.96781000  1.0
  N  N222  1  0.76025000  0.22825000  0.46781000  1.0
  N  N223  1  0.23975000  0.72825000  0.03219000  1.0
  O  O224  1  0.08361000  0.60773000  0.26823000  1.0
  O  O225  1  0.91638000  0.10773000  0.23177000  1.0
  O  O226  1  0.91639000  0.39227000  0.73177000  1.0
  O  O227  1  0.08361000  0.89227000  0.76823000  1.0
  O  O228  1  0.15361000  0.64933000  0.18884000  1.0
  O  O229  1  0.84639000  0.14933000  0.31116000  1.0
  O  O230  1  0.84639000  0.35067000  0.81116000  1.0
  O  O231  1  0.15361000  0.85067000  0.68884000  1.0
  O  O232  1  0.86448000  0.34516000  0.24454000  1.0
  O  O233  1  0.13552000  0.84516000  0.25545000  1.0
  O  O234  1  0.13553000  0.65484000  0.75545000  1.0
  O  O235  1  0.86447000  0.15485000  0.74455000  1.0
  O  O236  1  0.81467000  0.28768000  0.15183000  1.0
  O  O237  1  0.18533000  0.78768000  0.34817000  1.0
  O  O238  1  0.18533000  0.71232000  0.84817000  1.0
  O  O239  1  0.81467000  0.21232000  0.65183000  1.0
  O  O240  1  0.31359000  0.64533000  0.31827000  1.0
  O  O241  1  0.68641000  0.14533000  0.18173000  1.0
  O  O242  1  0.68641000  0.35467000  0.68173000  1.0
  O  O243  1  0.31359000  0.85467000  0.81827000  1.0
  O  O244  1  0.37543000  0.61164000  0.23597000  1.0
  O  O245  1  0.62457000  0.11164000  0.26403000  1.0
  O  O246  1  0.62457000  0.38836000  0.76403000  1.0
  O  O247  1  0.37543000  0.88836000  0.73597000  1.0
  O  O248  1  0.61663000  0.35643000  0.24754000  1.0
  O  O249  1  0.38337000  0.85643000  0.25246000  1.0
  O  O250  1  0.38337000  0.64357000  0.75246000  1.0
  O  O251  1  0.61663000  0.14357000  0.74754000  1.0
  O  O252  1  0.69186000  0.31842000  0.33962000  1.0
  O  O253  1  0.30814000  0.81842000  0.16038000  1.0
  O  O254  1  0.30814000  0.68158000  0.66038000  1.0
  O  O255  1  0.69186000  0.18158000  0.83963000  1.0
  O  O256  1  0.18389000  0.47555000  0.36869000  1.0
  O  O257  1  0.81611000  0.97555000  0.13131000  1.0
  O  O258  1  0.81611000  0.52445000  0.63131000  1.0
  O  O259  1  0.18389000  0.02445000  0.86869000  1.0
  O  O260  1  0.21245000  0.66515000  0.45983000  1.0
  O  O261  1  0.78755000  0.16515000  0.04017000  1.0
  O  O262  1  0.78755000  0.33485000  0.54017000  1.0
  O  O263  1  0.21245000  0.83485000  0.95983000  1.0
  O  O264  1  0.01137000  0.66069000  0.36433000  1.0
  O  O265  1  0.98863000  0.16069000  0.13567000  1.0
  O  O266  1  0.98863000  0.33931000  0.63567000  1.0
  O  O267  1  0.01137000  0.83931000  0.86433000  1.0
