# generated using pymatgen
data_Cu2H20C23(N4O)2
_symmetry_space_group_name_H-M   'P 1'
_cell_length_a   10.03040000
_cell_length_b   10.04090000
_cell_length_c   11.98440000
_cell_angle_alpha   85.80900000
_cell_angle_beta   72.53610000
_cell_angle_gamma   77.46780000
_symmetry_Int_Tables_number   1
_chemical_formula_structural   Cu2H20C23(N4O)2
_chemical_formula_sum   'Cu4 H40 C46 N16 O4'
_cell_volume   1123.89134703
_cell_formula_units_Z   2
loop_
 _symmetry_equiv_pos_site_id
 _symmetry_equiv_pos_as_xyz
  1  'x, y, z'
loop_
 _atom_site_type_symbol
 _atom_site_label
 _atom_site_symmetry_multiplicity
 _atom_site_fract_x
 _atom_site_fract_y
 _atom_site_fract_z
 _atom_site_occupancy
  Cu  Cu0  1  0.20291000  0.78806000  0.36421000  1.0
  Cu  Cu1  1  0.79709000  0.21194000  0.63578000  1.0
  Cu  Cu2  1  0.18232000  0.67083000  0.13816000  1.0
  Cu  Cu3  1  0.81768000  0.32918000  0.86184000  1.0
  H  H4  1  0.88242000  0.66656000  0.22671000  1.0
  H  H5  1  0.11758000  0.33345000  0.77329000  1.0
  H  H6  1  0.63811000  0.63803000  0.34382000  1.0
  H  H7  1  0.36189000  0.36198000  0.65618000  1.0
  H  H8  1  0.57637000  0.61695000  0.56053000  1.0
  H  H9  1  0.42362000  0.38305000  0.43948000  1.0
  H  H10  1  0.75659000  0.63324000  0.66111000  1.0
  H  H11  1  0.24341000  0.36675000  0.33889000  1.0
  H  H12  1  0.98465000  0.65228000  0.65814000  1.0
  H  H13  1  0.01534000  0.34772000  0.34186000  1.0
  H  H14  1  0.32686000  0.66617000  0.56197000  1.0
  H  H15  1  0.67314000  0.33383000  0.43803000  1.0
  H  H16  1  0.17202000  0.68863000  0.68659000  1.0
  H  H17  1  0.82798000  0.31136000  0.31341000  1.0
  H  H18  1  0.09532000  0.07284000  0.67233000  1.0
  H  H19  1  0.90468000  0.92716000  0.32767000  1.0
  H  H20  1  0.01465000  0.93105000  0.72373000  1.0
  H  H21  1  0.98535000  0.06894000  0.27628000  1.0
  H  H22  1  0.03786000  0.98699000  0.57616000  1.0
  H  H23  1  0.96214000  0.01301000  0.42384000  1.0
  H  H24  1  0.40710000  0.80378000  0.69356000  1.0
  H  H25  1  0.59291000  0.19621000  0.30644000  1.0
  H  H26  1  0.23503000  0.84896000  0.79508000  1.0
  H  H27  1  0.76497000  0.15103000  0.20493000  1.0
  H  H28  1  0.32291000  0.97917000  0.71990000  1.0
  H  H29  1  0.67709000  0.02082000  0.28011000  1.0
  H  H30  1  0.34823000  0.02912000  0.51666000  1.0
  H  H31  1  0.65177000  0.97089000  0.48335000  1.0
  H  H32  1  0.43926000  0.85675000  0.48429000  1.0
  H  H33  1  0.56075000  0.14325000  0.51571000  1.0
  H  H34  1  0.37878000  0.09899000  0.34351000  1.0
  H  H35  1  0.62123000  0.90101000  0.65649000  1.0
  H  H36  1  0.22109000  0.90845000  0.98927000  1.0
  H  H37  1  0.77890000  0.09156000  0.01072000  1.0
  H  H38  1  0.31084000  0.10511000  0.87826000  1.0
  H  H39  1  0.68915000  0.89490000  0.12174000  1.0
  H  H40  1  0.41067000  0.26071000  0.97098000  1.0
  H  H41  1  0.58933000  0.73930000  0.02902000  1.0
  H  H42  1  0.40906000  0.22089000  0.17789000  1.0
  H  H43  1  0.59095000  0.77911000  0.82211000  1.0
  C  C44  1  0.95655000  0.66922000  0.37723000  1.0
  C  C45  1  0.04345000  0.33077000  0.62277000  1.0
  C  C46  1  0.85342000  0.65909000  0.32173000  1.0
  C  C47  1  0.14658000  0.34091000  0.67827000  1.0
  C  C48  1  0.71782000  0.64325000  0.38763000  1.0
  C  C49  1  0.28217000  0.35676000  0.61236000  1.0
  C  C50  1  0.68146000  0.63362000  0.51015000  1.0
  C  C51  1  0.31854000  0.36638000  0.48985000  1.0
  C  C52  1  0.78165000  0.64286000  0.56613000  1.0
  C  C53  1  0.21835000  0.35714000  0.43387000  1.0
  C  C54  1  0.91846000  0.66441000  0.50196000  1.0
  C  C55  1  0.08154000  0.33559000  0.49804000  1.0
  C  C56  1  0.01575000  0.67937000  0.56484000  1.0
  C  C57  1  0.98425000  0.32063000  0.43516000  1.0
  C  C58  1  0.22031000  0.73013000  0.59976000  1.0
  C  C59  1  0.77969000  0.26986000  0.40024000  1.0
  C  C60  1  0.23414000  0.87769000  0.61351000  1.0
  C  C61  1  0.76586000  0.12231000  0.38649000  1.0
  C  C62  1  0.08695000  0.97258000  0.64787000  1.0
  C  C63  1  0.91305000  0.02742000  0.35213000  1.0
  C  C64  1  0.30459000  0.87699000  0.71087000  1.0
  C  C65  1  0.69541000  0.12300000  0.28913000  1.0
  C  C66  1  0.33390000  0.92665000  0.50154000  1.0
  C  C67  1  0.66610000  0.07335000  0.49846000  1.0
  C  C68  1  0.32886000  0.02381000  0.31749000  1.0
  C  C69  1  0.67115000  0.97619000  0.68251000  1.0
  C  C70  1  0.31948000  0.04053000  0.20029000  1.0
  C  C71  1  0.68052000  0.95947000  0.79971000  1.0
  C  C72  1  0.26933000  0.94820000  0.14486000  1.0
  C  C73  1  0.73067000  0.05180000  0.85514000  1.0
  C  C74  1  0.26435000  0.97634000  0.02908000  1.0
  C  C75  1  0.73564000  0.02366000  0.97092000  1.0
  C  C76  1  0.31461000  0.08693000  0.96819000  1.0
  C  C77  1  0.68539000  0.91308000  0.03181000  1.0
  C  C78  1  0.36891000  0.17563000  0.02005000  1.0
  C  C79  1  0.63110000  0.82438000  0.97995000  1.0
  C  C80  1  0.36913000  0.15254000  0.13506000  1.0
  C  C81  1  0.63087000  0.84747000  0.86494000  1.0
  C  C82  1  0.08399000  0.40692000  0.12253000  1.0
  C  C83  1  0.91601000  0.59308000  0.87746000  1.0
  C  C84  1  0.99669000  0.27162000  0.02607000  1.0
  C  C85  1  0.00332000  0.72838000  0.97393000  1.0
  C  C86  1  0.41677000  0.60263000  0.91023000  1.0
  C  C87  1  0.58323000  0.39737000  0.08978000  1.0
  C  C88  1  0.53513000  0.46197000  0.74960000  1.0
  C  C89  1  0.46487000  0.53803000  0.25040000  1.0
  N  N90  1  0.13410000  0.72240000  0.52297000  1.0
  N  N91  1  0.86591000  0.27759000  0.47703000  1.0
  N  N92  1  0.28913000  0.93186000  0.39530000  1.0
  N  N93  1  0.71088000  0.06814000  0.60470000  1.0
  N  N94  1  0.14768000  0.48568000  0.13941000  1.0
  N  N95  1  0.85232000  0.51433000  0.86058000  1.0
  N  N96  1  0.35541000  0.64209000  0.00617000  1.0
  N  N97  1  0.64458000  0.35790000  0.99383000  1.0
  N  N98  1  0.97410000  0.22637000  0.94671000  1.0
  N  N99  1  0.02590000  0.77363000  0.05329000  1.0
  N  N100  1  0.01051000  0.31724000  0.11959000  1.0
  N  N101  1  0.98950000  0.68277000  0.88041000  1.0
  N  N102  1  0.48701000  0.57827000  0.80227000  1.0
  N  N103  1  0.51300000  0.42172000  0.19774000  1.0
  N  N104  1  0.58230000  0.36582000  0.68794000  1.0
  N  N105  1  0.41770000  0.63419000  0.31206000  1.0
  O  O106  1  0.08711000  0.68237000  0.31478000  1.0
  O  O107  1  0.91289000  0.31763000  0.68522000  1.0
  O  O108  1  0.22835000  0.83810000  0.20031000  1.0
  O  O109  1  0.77165000  0.16190000  0.79969000  1.0
