# generated using pymatgen
data_CuH5C6BrNO
_symmetry_space_group_name_H-M   'P 1'
_cell_length_a   3.90871000
_cell_length_b   7.76358194
_cell_length_c   12.00320000
_cell_angle_alpha   76.41955253
_cell_angle_beta   86.83880000
_cell_angle_gamma   75.74418418
_symmetry_Int_Tables_number   1
_chemical_formula_structural   CuH5C6BrNO
_chemical_formula_sum   'Cu2 H10 C12 Br2 N2 O2'
_cell_volume   343.15600665
_cell_formula_units_Z   2
loop_
 _symmetry_equiv_pos_site_id
 _symmetry_equiv_pos_as_xyz
  1  'x, y, z'
loop_
 _atom_site_type_symbol
 _atom_site_label
 _atom_site_symmetry_multiplicity
 _atom_site_fract_x
 _atom_site_fract_y
 _atom_site_fract_z
 _atom_site_occupancy
  Cu  Cu0  1  0.88958000  0.40477000  0.94204000  1.0
  Cu  Cu1  1  0.11041000  0.59523000  0.05796000  1.0
  H  H2  1  0.12627000  0.61407000  0.78578000  1.0
  H  H3  1  0.87374000  0.38590000  0.21425000  1.0
  H  H4  1  0.33794000  0.38017000  0.53587000  1.0
  H  H5  1  0.66206000  0.61984000  0.46413000  1.0
  H  H6  1  0.22235000  0.07229000  0.54566000  1.0
  H  H7  1  0.77765000  0.92772000  0.45432000  1.0
  H  H8  1  0.94664000  0.92218000  0.72539000  1.0
  H  H9  1  0.05339000  0.07783000  0.27460000  1.0
  H  H10  1  0.79464000  0.08247000  0.88397000  1.0
  H  H11  1  0.20537000  0.91750000  0.11603000  1.0
  C  C12  1  0.12735000  0.39043000  0.70436000  1.0
  C  C13  1  0.87266000  0.60955000  0.29564000  1.0
  C  C14  1  0.19785000  0.56887000  0.70414000  1.0
  C  C15  1  0.80215000  0.43112000  0.29587000  1.0
  C  C16  1  0.21571000  0.31002000  0.61090000  1.0
  C  C17  1  0.78428000  0.69002000  0.38911000  1.0
  C  C18  1  0.15403000  0.13897000  0.61693000  1.0
  C  C19  1  0.84594000  0.86102000  0.38307000  1.0
  C  C20  1  0.00319000  0.05499000  0.71632000  1.0
  C  C21  1  0.99682000  0.94499000  0.28366000  1.0
  C  C22  1  0.91786000  0.14411000  0.80594000  1.0
  C  C23  1  0.08218000  0.85588000  0.19405000  1.0
  Br  Br24  1  0.42517000  0.26803000  0.06436000  1.0
  Br  Br25  1  0.57480000  0.73195000  0.93560000  1.0
  N  N26  1  0.97769000  0.30915000  0.80140000  1.0
  N  N27  1  0.02231000  0.69085000  0.19860000  1.0
  O  O28  1  0.32755000  0.66117000  0.62321000  1.0
  O  O29  1  0.67246000  0.33886000  0.37682000  1.0
