# generated using pymatgen
data_CdH22C32(N2O3)2
_symmetry_space_group_name_H-M   'P 1'
_cell_length_a   7.72306000
_cell_length_b   14.16646077
_cell_length_c   14.17191937
_cell_angle_alpha   79.24952553
_cell_angle_beta   74.23282658
_cell_angle_gamma   74.25942134
_symmetry_Int_Tables_number   1
_chemical_formula_structural   CdH22C32(N2O3)2
_chemical_formula_sum   'Cd2 H44 C64 N8 O12'
_cell_volume   1425.53741735
_cell_formula_units_Z   2
loop_
 _symmetry_equiv_pos_site_id
 _symmetry_equiv_pos_as_xyz
  1  'x, y, z'
loop_
 _atom_site_type_symbol
 _atom_site_label
 _atom_site_symmetry_multiplicity
 _atom_site_fract_x
 _atom_site_fract_y
 _atom_site_fract_z
 _atom_site_occupancy
  Cd  Cd0  1  0.07174000  0.75023000  0.25035000  1.0
  Cd  Cd1  1  0.92824000  0.24977000  0.74966000  1.0
  H  H2  1  0.62549000  0.60334000  0.34780000  1.0
  H  H3  1  0.57528000  0.89639000  0.15233000  1.0
  H  H4  1  0.37453000  0.39666000  0.65219000  1.0
  H  H5  1  0.42470000  0.10362000  0.84768000  1.0
  H  H6  1  0.16896000  0.49275000  0.53858000  1.0
  H  H7  1  0.20002000  0.00826000  0.96105000  1.0
  H  H8  1  0.83105000  0.50725000  0.46142000  1.0
  H  H9  1  0.79997000  0.99174000  0.03895000  1.0
  H  H10  1  0.88448000  0.96672000  0.19960000  1.0
  H  H11  1  0.05123000  0.53335000  0.30072000  1.0
  H  H12  1  0.11552000  0.03327000  0.80040000  1.0
  H  H13  1  0.94877000  0.46664000  0.69928000  1.0
  H  H14  1  0.36416000  0.05687000  0.40705000  1.0
  H  H15  1  0.82855000  0.44313000  0.09287000  1.0
  H  H16  1  0.63585000  0.94313000  0.59295000  1.0
  H  H17  1  0.17146000  0.55687000  0.90712000  1.0
  H  H18  1  0.42312000  0.88499000  0.49659000  1.0
  H  H19  1  0.80605000  0.61499000  0.00327000  1.0
  H  H20  1  0.57688000  0.11501000  0.50341000  1.0
  H  H21  1  0.19396000  0.38502000  0.99672000  1.0
  H  H22  1  0.71660000  0.76303000  0.43473000  1.0
  H  H23  1  0.91570000  0.73705000  0.06549000  1.0
  H  H24  1  0.28339000  0.23697000  0.56528000  1.0
  H  H25  1  0.08430000  0.26295000  0.93451000  1.0
  H  H26  1  0.57281000  0.20548000  0.06286000  1.0
  H  H27  1  0.84178000  0.29449000  0.43721000  1.0
  H  H28  1  0.42719000  0.79452000  0.93714000  1.0
  H  H29  1  0.15820000  0.70552000  0.56278000  1.0
  H  H30  1  0.57811000  0.34650000  0.93682000  1.0
  H  H31  1  0.86191000  0.15346000  0.56322000  1.0
  H  H32  1  0.42189000  0.65350000  0.06318000  1.0
  H  H33  1  0.13807000  0.84655000  0.43678000  1.0
  H  H34  1  0.42145000  0.54072000  0.16424000  1.0
  H  H35  1  0.12589000  0.95932000  0.33579000  1.0
  H  H36  1  0.57855000  0.45928000  0.83577000  1.0
  H  H37  1  0.87410000  0.04068000  0.66421000  1.0
  H  H38  1  0.41407000  0.39769000  0.29012000  1.0
  H  H39  1  0.10139000  0.10232000  0.20991000  1.0
  H  H40  1  0.58593000  0.60231000  0.70988000  1.0
  H  H41  1  0.89862000  0.89768000  0.79008000  1.0
  H  H42  1  0.69916000  0.12346000  0.17540000  1.0
  H  H43  1  0.99806000  0.37661000  0.32476000  1.0
  H  H44  1  0.30083000  0.87654000  0.82461000  1.0
  H  H45  1  0.00195000  0.62338000  0.67523000  1.0
  C  C46  1  0.26547000  0.61450000  0.37105000  1.0
  C  C47  1  0.24943000  0.88613000  0.12865000  1.0
  C  C48  1  0.73453000  0.38551000  0.62895000  1.0
  C  C49  1  0.75056000  0.11387000  0.87135000  1.0
  C  C50  1  0.38624000  0.55394000  0.43739000  1.0
  C  C51  1  0.37672000  0.94644000  0.06249000  1.0
  C  C52  1  0.61378000  0.44606000  0.56261000  1.0
  C  C53  1  0.62326000  0.05356000  0.93752000  1.0
  C  C54  1  0.57293000  0.55763000  0.41471000  1.0
  C  C55  1  0.54451000  0.94224000  0.08538000  1.0
  C  C56  1  0.42709000  0.44237000  0.58529000  1.0
  C  C57  1  0.45547000  0.05777000  0.91463000  1.0
  C  C58  1  0.31369000  0.49604000  0.52295000  1.0
  C  C59  1  0.33249000  0.00452000  0.97687000  1.0
  C  C60  1  0.68632000  0.50396000  0.47705000  1.0
  C  C61  1  0.66749000  0.99549000  0.02314000  1.0
  C  C62  1  0.77840000  0.95230000  0.26567000  1.0
  C  C63  1  0.99698000  0.54775000  0.23456000  1.0
  C  C64  1  0.22161000  0.04769000  0.73433000  1.0
  C  C65  1  0.00302000  0.45225000  0.76544000  1.0
  C  C66  1  0.62046000  0.02626000  0.29664000  1.0
  C  C67  1  0.94383000  0.47376000  0.20347000  1.0
  C  C68  1  0.37954000  0.97373000  0.70337000  1.0
  C  C69  1  0.05618000  0.52623000  0.79652000  1.0
  C  C70  1  0.48812000  0.00156000  0.38090000  1.0
  C  C71  1  0.87129000  0.49843000  0.11908000  1.0
  C  C72  1  0.51189000  0.99844000  0.61910000  1.0
  C  C73  1  0.12872000  0.50157000  0.88091000  1.0
  C  C74  1  0.52150000  0.90614000  0.43025000  1.0
  C  C75  1  0.85898000  0.59385000  0.06974000  1.0
  C  C76  1  0.47849000  0.09386000  0.56976000  1.0
  C  C77  1  0.14102000  0.40615000  0.93026000  1.0
  C  C78  1  0.68316000  0.83730000  0.39609000  1.0
  C  C79  1  0.91770000  0.66273000  0.10404000  1.0
  C  C80  1  0.31683000  0.16270000  0.60392000  1.0
  C  C81  1  0.08231000  0.33727000  0.89596000  1.0
  C  C82  1  0.48645000  0.20750000  0.26717000  1.0
  C  C83  1  0.96104000  0.29249000  0.23290000  1.0
  C  C84  1  0.51353000  0.79250000  0.73284000  1.0
  C  C85  1  0.03895000  0.70751000  0.76709000  1.0
  C  C86  1  0.49314000  0.29147000  0.18645000  1.0
  C  C87  1  0.97111000  0.20853000  0.31358000  1.0
  C  C88  1  0.50687000  0.70853000  0.81354000  1.0
  C  C89  1  0.02888000  0.79148000  0.68642000  1.0
  C  C90  1  0.54017000  0.27872000  0.08609000  1.0
  C  C91  1  0.90531000  0.22125000  0.41395000  1.0
  C  C92  1  0.45983000  0.72128000  0.91391000  1.0
  C  C93  1  0.09468000  0.77875000  0.58605000  1.0
  C  C94  1  0.54233000  0.35982000  0.01375000  1.0
  C  C95  1  0.91623000  0.14014000  0.48627000  1.0
  C  C96  1  0.45767000  0.64018000  0.98625000  1.0
  C  C97  1  0.08377000  0.85986000  0.51372000  1.0
  C  C98  1  0.49842000  0.45675000  0.03858000  1.0
  C  C99  1  0.99380000  0.04324000  0.46142000  1.0
  C  C100  1  0.50158000  0.54325000  0.96142000  1.0
  C  C101  1  0.00620000  0.95676000  0.53857000  1.0
  C  C102  1  0.45231000  0.46827000  0.13987000  1.0
  C  C103  1  0.06016000  0.03175000  0.36013000  1.0
  C  C104  1  0.54769000  0.53173000  0.86013000  1.0
  C  C105  1  0.93983000  0.96826000  0.63986000  1.0
  C  C106  1  0.44860000  0.38743000  0.21223000  1.0
  C  C107  1  0.04799000  0.11258000  0.28778000  1.0
  C  C108  1  0.55140000  0.61256000  0.78777000  1.0
  C  C109  1  0.95202000  0.88742000  0.71221000  1.0
  N  N110  1  0.80792000  0.86086000  0.31401000  1.0
  N  N111  1  0.98364000  0.63921000  0.18625000  1.0
  N  N112  1  0.19207000  0.13914000  0.68599000  1.0
  N  N113  1  0.01636000  0.36079000  0.81375000  1.0
  N  N114  1  0.60337000  0.11874000  0.24042000  1.0
  N  N115  1  0.96268000  0.38129000  0.25968000  1.0
  N  N116  1  0.39664000  0.88126000  0.75958000  1.0
  N  N117  1  0.03732000  0.61871000  0.74031000  1.0
  O  O118  1  0.34328000  0.63944000  0.28139000  1.0
  O  O119  1  0.26233000  0.86124000  0.21841000  1.0
  O  O120  1  0.65673000  0.36057000  0.71861000  1.0
  O  O121  1  0.73766000  0.13876000  0.78159000  1.0
  O  O122  1  0.09107000  0.64087000  0.40655000  1.0
  O  O123  1  0.13675000  0.85988000  0.09307000  1.0
  O  O124  1  0.90894000  0.35913000  0.59345000  1.0
  O  O125  1  0.86323000  0.14013000  0.90694000  1.0
  O  O126  1  0.38553000  0.21689000  0.35083000  1.0
  O  O127  1  0.95308000  0.28308000  0.14921000  1.0
  O  O128  1  0.61445000  0.78311000  0.64917000  1.0
  O  O129  1  0.04690000  0.71692000  0.85079000  1.0
