# generated using pymatgen
data_CrH2(C3O2)2
_symmetry_space_group_name_H-M   'P 1'
_cell_length_a   18.83270000
_cell_length_b   18.83270000
_cell_length_c   18.83265000
_cell_angle_alpha   59.99991217
_cell_angle_beta   59.99973652
_cell_angle_gamma   60.00000000
_symmetry_Int_Tables_number   1
_chemical_formula_structural   CrH2(C3O2)2
_chemical_formula_sum   'Cr12 H24 C72 O48'
_cell_volume   4723.02735427
_cell_formula_units_Z   12
loop_
 _symmetry_equiv_pos_site_id
 _symmetry_equiv_pos_as_xyz
  1  'x, y, z'
loop_
 _atom_site_type_symbol
 _atom_site_label
 _atom_site_symmetry_multiplicity
 _atom_site_fract_x
 _atom_site_fract_y
 _atom_site_fract_z
 _atom_site_occupancy
  Cr  Cr0  1  0.00000000  0.45074000  0.54926000  1.0
  Cr  Cr1  1  0.54926000  0.00000000  1.00000000  1.0
  Cr  Cr2  1  0.00000000  0.54925000  0.45075000  1.0
  Cr  Cr3  1  0.45075000  1.00000000  0.00000000  1.0
  Cr  Cr4  1  0.54925000  0.45075000  0.00000000  1.0
  Cr  Cr5  1  0.00000000  1.00000000  0.54926000  1.0
  Cr  Cr6  1  0.45075000  0.00000000  0.54925000  1.0
  Cr  Cr7  1  0.00000000  0.00000000  0.45075000  1.0
  Cr  Cr8  1  0.54926000  0.00000000  0.45074000  1.0
  Cr  Cr9  1  0.45074000  0.54926000  0.00000000  1.0
  Cr  Cr10  1  0.00000000  0.45073000  0.00000000  1.0
  Cr  Cr11  1  0.00000000  0.54924000  0.00000000  1.0
  H  H12  1  0.97295000  0.26604000  0.49497000  1.0
  H  H13  1  0.49497000  0.26605000  0.97294000  1.0
  H  H14  1  0.26605000  0.49497000  0.26604000  1.0
  H  H15  1  0.26605000  0.97294000  0.26604000  1.0
  H  H16  1  0.73395000  0.73396000  0.02706000  1.0
  H  H17  1  0.50502000  0.02706000  0.73396000  1.0
  H  H18  1  0.73395000  0.50503000  0.73396000  1.0
  H  H19  1  0.73395000  0.02706000  0.73396000  1.0
  H  H20  1  0.02705000  0.50503000  0.73396000  1.0
  H  H21  1  0.73395000  0.73396000  0.50503000  1.0
  H  H22  1  0.26605000  0.97294000  0.49497000  1.0
  H  H23  1  0.26605000  0.26604000  0.49497000  1.0
  H  H24  1  0.02705000  0.73396000  0.50503000  1.0
  H  H25  1  0.73395000  0.02706000  0.50503000  1.0
  H  H26  1  0.26605000  0.49497000  0.97294000  1.0
  H  H27  1  0.97295000  0.26604000  0.26604000  1.0
  H  H28  1  0.49498000  0.26604000  0.26604000  1.0
  H  H29  1  0.26605000  0.26604000  0.97294000  1.0
  H  H30  1  0.49498000  0.97294000  0.26604000  1.0
  H  H31  1  0.97295000  0.49497000  0.26604000  1.0
  H  H32  1  0.02705000  0.73396000  0.73396000  1.0
  H  H33  1  0.50502000  0.73396000  0.73396000  1.0
  H  H34  1  0.73395000  0.50503000  0.02706000  1.0
  H  H35  1  0.50502000  0.73396000  0.02706000  1.0
  C  C36  1  0.97638000  0.42935000  0.42935000  1.0
  C  C37  1  0.42936000  0.16492000  0.97638000  1.0
  C  C38  1  0.16492000  0.42935000  0.42935000  1.0
  C  C39  1  0.42936000  0.97638000  0.16492000  1.0
  C  C40  1  0.57066000  0.83508000  0.02362000  1.0
  C  C41  1  0.57066000  0.02362000  0.83508000  1.0
  C  C42  1  0.57065000  0.57065000  0.83508000  1.0
  C  C43  1  0.83509000  0.02362000  0.57065000  1.0
  C  C44  1  0.02362000  0.57065000  0.57065000  1.0
  C  C45  1  0.83508000  0.57065000  0.57065000  1.0
  C  C46  1  0.16492000  0.97638000  0.42936000  1.0
  C  C47  1  0.42935000  0.16492000  0.42935000  1.0
  C  C48  1  0.02363000  0.83508000  0.57065000  1.0
  C  C49  1  0.57066000  0.02362000  0.57064000  1.0
  C  C50  1  0.42934000  0.42936000  0.97638000  1.0
  C  C51  1  0.97637000  0.16492000  0.42936000  1.0
  C  C52  1  0.42934000  0.42936000  0.16492000  1.0
  C  C53  1  0.16492000  0.42934000  0.97638000  1.0
  C  C54  1  0.42935000  0.97638000  0.42935000  1.0
  C  C55  1  0.97637000  0.42934000  0.16492000  1.0
  C  C56  1  0.02362000  0.57064000  0.83508000  1.0
  C  C57  1  0.57066000  0.83508000  0.57064000  1.0
  C  C58  1  0.83508000  0.57064000  0.02362000  1.0
  C  C59  1  0.57065000  0.57065000  0.02362000  1.0
  C  C60  1  0.97143000  0.38577000  0.38577000  1.0
  C  C61  1  0.38577000  0.25703000  0.97143000  1.0
  C  C62  1  0.25703000  0.38577000  0.38577000  1.0
  C  C63  1  0.38576000  0.97143000  0.25703000  1.0
  C  C64  1  0.61422000  0.74298000  0.02857000  1.0
  C  C65  1  0.61423000  0.02857000  0.74297000  1.0
  C  C66  1  0.61423000  0.61423000  0.74297000  1.0
  C  C67  1  0.74297000  0.02857000  0.61423000  1.0
  C  C68  1  0.02857000  0.61423000  0.61423000  1.0
  C  C69  1  0.74297000  0.61422000  0.61424000  1.0
  C  C70  1  0.25703000  0.97143000  0.38577000  1.0
  C  C71  1  0.38577000  0.25703000  0.38577000  1.0
  C  C72  1  0.02857000  0.74297000  0.61423000  1.0
  C  C73  1  0.61423000  0.02857000  0.61423000  1.0
  C  C74  1  0.38576000  0.38578000  0.97143000  1.0
  C  C75  1  0.97142000  0.25703000  0.38578000  1.0
  C  C76  1  0.38576000  0.38578000  0.25703000  1.0
  C  C77  1  0.25702000  0.38577000  0.97143000  1.0
  C  C78  1  0.38577000  0.97143000  0.38577000  1.0
  C  C79  1  0.97143000  0.38577000  0.25703000  1.0
  C  C80  1  0.02857000  0.61423000  0.74297000  1.0
  C  C81  1  0.61423000  0.74297000  0.61423000  1.0
  C  C82  1  0.74297000  0.61423000  0.02857000  1.0
  C  C83  1  0.61422000  0.61424000  0.02857000  1.0
  C  C84  1  0.97141000  0.29991000  0.42877000  1.0
  C  C85  1  0.42877000  0.29991000  0.97141000  1.0
  C  C86  1  0.29991000  0.42877000  0.29991000  1.0
  C  C87  1  0.29992000  0.97141000  0.29991000  1.0
  C  C88  1  0.70009000  0.70009000  0.02859000  1.0
  C  C89  1  0.57123000  0.02859000  0.70009000  1.0
  C  C90  1  0.70008000  0.57124000  0.70009000  1.0
  C  C91  1  0.70009000  0.02859000  0.70009000  1.0
  C  C92  1  0.02859000  0.57123000  0.70009000  1.0
  C  C93  1  0.70009000  0.70010000  0.57122000  1.0
  C  C94  1  0.29992000  0.97141000  0.42877000  1.0
  C  C95  1  0.29991000  0.29991000  0.42877000  1.0
  C  C96  1  0.02859000  0.70009000  0.57123000  1.0
  C  C97  1  0.70010000  0.02859000  0.57122000  1.0
  C  C98  1  0.29991000  0.42877000  0.97141000  1.0
  C  C99  1  0.97141000  0.29991000  0.29991000  1.0
  C  C100  1  0.42877000  0.29991000  0.29991000  1.0
  C  C101  1  0.29991000  0.29991000  0.97141000  1.0
  C  C102  1  0.42877000  0.97141000  0.29991000  1.0
  C  C103  1  0.97141000  0.42877000  0.29991000  1.0
  C  C104  1  0.02859000  0.70009000  0.70009000  1.0
  C  C105  1  0.57123000  0.70010000  0.70008000  1.0
  C  C106  1  0.70009000  0.57123000  0.02859000  1.0
  C  C107  1  0.57123000  0.70009000  0.02859000  1.0
  O  O108  1  0.97994000  0.38828000  0.50700000  1.0
  O  O109  1  0.50701000  0.12478000  0.97994000  1.0
  O  O110  1  0.12477000  0.50700000  0.38829000  1.0
  O  O111  1  0.38829000  0.97995000  0.12477000  1.0
  O  O112  1  0.61172000  0.87523000  0.02006000  1.0
  O  O113  1  0.49301000  0.02006000  0.87523000  1.0
  O  O114  1  0.61170000  0.49301000  0.87523000  1.0
  O  O115  1  0.87523000  0.02006000  0.61172000  1.0
  O  O116  1  0.02005000  0.49300000  0.61172000  1.0
  O  O117  1  0.87523000  0.61171000  0.49300000  1.0
  O  O118  1  0.12477000  0.97994000  0.50701000  1.0
  O  O119  1  0.38829000  0.12477000  0.50700000  1.0
  O  O120  1  0.02005000  0.87523000  0.49301000  1.0
  O  O121  1  0.61171000  0.02006000  0.49300000  1.0
  O  O122  1  0.38828000  0.50701000  0.97994000  1.0
  O  O123  1  0.97994000  0.12477000  0.38830000  1.0
  O  O124  1  0.50700000  0.38829000  0.12477000  1.0
  O  O125  1  0.12477000  0.38827000  0.97994000  1.0
  O  O126  1  0.50701000  0.97994000  0.38828000  1.0
  O  O127  1  0.97994000  0.50699000  0.12477000  1.0
  O  O128  1  0.02006000  0.61170000  0.87523000  1.0
  O  O129  1  0.49300000  0.87523000  0.61171000  1.0
  O  O130  1  0.87523000  0.49298000  0.02006000  1.0
  O  O131  1  0.49299000  0.61172000  0.02006000  1.0
  O  O132  1  0.02006000  0.61171000  0.49300000  1.0
  O  O133  1  0.49301000  0.87523000  0.02006000  1.0
  O  O134  1  0.87522000  0.49300000  0.61172000  1.0
  O  O135  1  0.61173000  0.02006000  0.87522000  1.0
  O  O136  1  0.38830000  0.12477000  0.97994000  1.0
  O  O137  1  0.50702000  0.97994000  0.12477000  1.0
  O  O138  1  0.38828000  0.50701000  0.12477000  1.0
  O  O139  1  0.12477000  0.97995000  0.38829000  1.0
  O  O140  1  0.97994000  0.50700000  0.38829000  1.0
  O  O141  1  0.12478000  0.38828000  0.50700000  1.0
  O  O142  1  0.87522000  0.02006000  0.49301000  1.0
  O  O143  1  0.61171000  0.87523000  0.49300000  1.0
  O  O144  1  0.97994000  0.12478000  0.50701000  1.0
  O  O145  1  0.38828000  0.97995000  0.50700000  1.0
  O  O146  1  0.61170000  0.49301000  0.02006000  1.0
  O  O147  1  0.02005000  0.87523000  0.61173000  1.0
  O  O148  1  0.49299000  0.61172000  0.87523000  1.0
  O  O149  1  0.87523000  0.61170000  0.02006000  1.0
  O  O150  1  0.49300000  0.02006000  0.61171000  1.0
  O  O151  1  0.02006000  0.49299000  0.87522000  1.0
  O  O152  1  0.97994000  0.38827000  0.12477000  1.0
  O  O153  1  0.50701000  0.12477000  0.38828000  1.0
  O  O154  1  0.12477000  0.50699000  0.97994000  1.0
  O  O155  1  0.50700000  0.38829000  0.97994000  1.0
