# generated using pymatgen
data_Mn3H26(C12O11)2
_symmetry_space_group_name_H-M   'P 1'
_cell_length_a   4.66861000
_cell_length_b   12.47770000
_cell_length_c   14.22832600
_cell_angle_alpha   64.75259204
_cell_angle_beta   87.94915551
_cell_angle_gamma   79.85250000
_symmetry_Int_Tables_number   1
_chemical_formula_structural   Mn3H26(C12O11)2
_chemical_formula_sum   'Mn3 H26 C24 O22'
_cell_volume   737.22534953
_cell_formula_units_Z   1
loop_
 _symmetry_equiv_pos_site_id
 _symmetry_equiv_pos_as_xyz
  1  'x, y, z'
loop_
 _atom_site_type_symbol
 _atom_site_label
 _atom_site_symmetry_multiplicity
 _atom_site_fract_x
 _atom_site_fract_y
 _atom_site_fract_z
 _atom_site_occupancy
  Mn  Mn0  1  0.00001000  0.50000000  0.50000000  1.0
  Mn  Mn1  1  0.67656000  0.48350000  0.89746000  1.0
  Mn  Mn2  1  0.32343000  0.51649000  0.10255000  1.0
  H  H3  1  0.59185000  0.19856000  0.01678000  1.0
  H  H4  1  0.40814000  0.80143000  0.98322000  1.0
  H  H5  1  0.54183000  0.19561000  0.14112000  1.0
  H  H6  1  0.45817000  0.80438000  0.85888000  1.0
  H  H7  1  0.18697000  0.20836000  0.22569000  1.0
  H  H8  1  0.81303000  0.79164000  0.77431000  1.0
  H  H9  1  0.20136000  0.23952000  0.35796000  1.0
  H  H10  1  0.79864000  0.76049000  0.64204000  1.0
  H  H11  1  0.91593000  0.28775000  0.42505000  1.0
  H  H12  1  0.08407000  0.71225000  0.57495000  1.0
  H  H13  1  0.61097000  0.97523000  0.41430000  1.0
  H  H14  1  0.38903000  0.02477000  0.58570000  1.0
  H  H15  1  0.00820000  0.92416000  0.15225000  1.0
  H  H16  1  0.99179000  0.07584000  0.84775000  1.0
  H  H17  1  0.30297000  0.41713000  0.80634000  1.0
  H  H18  1  0.69702000  0.58287000  0.19366000  1.0
  H  H19  1  0.56274000  0.33323000  0.78470000  1.0
  H  H20  1  0.43726000  0.66677000  0.21530000  1.0
  H  H21  1  0.18149000  0.45854000  0.32701000  1.0
  H  H22  1  0.81853000  0.54146000  0.67299000  1.0
  H  H23  1  0.41346000  0.50523000  0.37821000  1.0
  H  H24  1  0.58655000  0.49477000  0.62179000  1.0
  H  H25  1  0.31002000  0.86374000  0.38554000  1.0
  H  H26  1  0.68998000  0.13626000  0.61446000  1.0
  H  H27  1  0.63407000  0.77987000  0.46441000  1.0
  H  H28  1  0.36592000  0.22013000  0.53559000  1.0
  C  C29  1  0.22515000  0.32266000  0.02143000  1.0
  C  C30  1  0.77484000  0.67734000  0.97857000  1.0
  C  C31  1  0.42592000  0.20127000  0.07271000  1.0
  C  C32  1  0.57408000  0.79872000  0.92729000  1.0
  C  C33  1  0.84045000  0.36893000  0.26076000  1.0
  C  C34  1  0.15955000  0.63105000  0.73925000  1.0
  C  C35  1  0.07607000  0.13341000  0.24198000  1.0
  C  C36  1  0.92393000  0.86659000  0.75802000  1.0
  C  C37  1  0.11562000  0.07004000  0.18009000  1.0
  C  C38  1  0.88437000  0.92996000  0.81991000  1.0
  C  C39  1  0.89164000  0.09791000  0.32492000  1.0
  C  C40  1  0.10836000  0.90209000  0.67508000  1.0
  C  C41  1  0.96271000  0.26077000  0.36099000  1.0
  C  C42  1  0.03729000  0.73923000  0.63901000  1.0
  C  C43  1  0.75434000  0.99885000  0.34946000  1.0
  C  C44  1  0.24566000  0.00115000  0.65054000  1.0
  C  C45  1  0.80134000  0.93643000  0.28699000  1.0
  C  C46  1  0.19866000  0.06357000  0.71301000  1.0
  C  C47  1  0.97920000  0.97183000  0.20153000  1.0
  C  C48  1  0.02079000  0.02817000  0.79847000  1.0
  C  C49  1  0.42544000  0.67914000  0.40974000  1.0
  C  C50  1  0.57457000  0.32086000  0.59025000  1.0
  C  C51  1  0.50802000  0.79760000  0.39351000  1.0
  C  C52  1  0.49198000  0.20240000  0.60649000  1.0
  O  O53  1  0.60758000  0.37026000  0.21821000  1.0
  O  O54  1  0.39241000  0.62974000  0.78179000  1.0
  O  O55  1  0.98165000  0.45831000  0.22818000  1.0
  O  O56  1  0.01834000  0.54169000  0.77182000  1.0
  O  O57  1  0.97451000  0.32938000  0.98765000  1.0
  O  O58  1  0.02548000  0.67062000  0.01235000  1.0
  O  O59  1  0.50221000  0.37047000  0.83177000  1.0
  O  O60  1  0.49779000  0.62954000  0.16823000  1.0
  O  O61  1  0.33252000  0.41602000  0.01129000  1.0
  O  O62  1  0.66747000  0.58398000  0.98871000  1.0
  O  O63  1  0.82992000  0.15835000  0.38664000  1.0
  O  O64  1  0.17010000  0.84165000  0.61336000  1.0
  O  O65  1  0.28687000  0.10102000  0.09561000  1.0
  O  O66  1  0.71313000  0.89898000  0.90439000  1.0
  O  O67  1  0.67916000  0.83812000  0.30439000  1.0
  O  O68  1  0.32084000  0.16188000  0.69561000  1.0
  O  O69  1  0.60067000  0.60670000  0.38257000  1.0
  O  O70  1  0.39934000  0.39330000  0.61743000  1.0
  O  O71  1  0.18791000  0.65709000  0.45368000  1.0
  O  O72  1  0.81209000  0.34290000  0.54632000  1.0
  O  O73  1  0.26688000  0.45084000  0.39318000  1.0
  O  O74  1  0.73315000  0.54917000  0.60681000  1.0
