# generated using pymatgen
data_MnH28C40S2(N5O)2
_symmetry_space_group_name_H-M   'P 1'
_cell_length_a   9.42727000
_cell_length_b   9.55004000
_cell_length_c   11.11140000
_cell_angle_alpha   83.76990000
_cell_angle_beta   84.88910000
_cell_angle_gamma   81.94810000
_symmetry_Int_Tables_number   1
_chemical_formula_structural   MnH28C40S2(N5O)2
_chemical_formula_sum   'Mn1 H28 C40 S2 N10 O2'
_cell_volume   981.87856601
_cell_formula_units_Z   1
loop_
 _symmetry_equiv_pos_site_id
 _symmetry_equiv_pos_as_xyz
  1  'x, y, z'
loop_
 _atom_site_type_symbol
 _atom_site_label
 _atom_site_symmetry_multiplicity
 _atom_site_fract_x
 _atom_site_fract_y
 _atom_site_fract_z
 _atom_site_occupancy
  Mn  Mn0  1  0.99999000  0.00000000  0.50000000  1.0
  H  H1  1  0.64560000  0.11632000  0.54493000  1.0
  H  H2  1  0.35440000  0.88369000  0.45506000  1.0
  H  H3  1  0.00608000  0.33868000  0.50651000  1.0
  H  H4  1  0.99393000  0.66130000  0.49349000  1.0
  H  H5  1  0.77261000  0.51451000  0.59423000  1.0
  H  H6  1  0.22740000  0.48549000  0.40577000  1.0
  H  H7  1  0.58323000  0.56641000  0.69367000  1.0
  H  H8  1  0.41678000  0.43359000  0.30633000  1.0
  H  H9  1  0.34218000  0.64787000  0.77761000  1.0
  H  H10  1  0.65782000  0.35213000  0.22239000  1.0
  H  H11  1  0.18411000  0.28922000  0.65595000  1.0
  H  H12  1  0.81590000  0.71078000  0.34405000  1.0
  H  H13  1  0.42741000  0.20337000  0.57137000  1.0
  H  H14  1  0.57260000  0.79663000  0.42863000  1.0
  H  H15  1  0.24336000  0.53435000  0.96985000  1.0
  H  H16  1  0.75665000  0.46564000  0.03015000  1.0
  H  H17  1  0.17099000  0.68439000  0.13577000  1.0
  H  H18  1  0.82901000  0.31561000  0.86423000  1.0
  H  H19  1  0.80453000  0.88832000  0.94437000  1.0
  H  H20  1  0.19548000  0.11169000  0.05563000  1.0
  H  H21  1  0.87314000  0.72863000  0.78390000  1.0
  H  H22  1  0.12686000  0.27137000  0.21610000  1.0
  H  H23  1  0.12701000  0.84175000  0.25426000  1.0
  H  H24  1  0.87298000  0.15825000  0.74575000  1.0
  H  H25  1  0.72687000  0.98119000  0.10391000  1.0
  H  H26  1  0.27313000  0.01881000  0.89608000  1.0
  H  H27  1  0.72937000  0.09295000  0.32172000  1.0
  H  H28  1  0.27062000  0.90705000  0.67827000  1.0
  C  C29  1  0.71239000  0.20003000  0.54216000  1.0
  C  C30  1  0.28760000  0.79998000  0.45784000  1.0
  C  C31  1  0.89591000  0.31922000  0.52605000  1.0
  C  C32  1  0.10410000  0.68077000  0.47395000  1.0
  C  C33  1  0.78042000  0.40752000  0.56910000  1.0
  C  C34  1  0.21959000  0.59248000  0.43089000  1.0
  C  C35  1  0.52318000  0.37780000  0.62812000  1.0
  C  C36  1  0.47683000  0.62221000  0.37188000  1.0
  C  C37  1  0.49786000  0.50249000  0.68673000  1.0
  C  C38  1  0.50215000  0.49751000  0.31327000  1.0
  C  C39  1  0.36058000  0.54847000  0.73540000  1.0
  C  C40  1  0.63942000  0.45154000  0.26460000  1.0
  C  C41  1  0.24586000  0.47195000  0.72628000  1.0
  C  C42  1  0.75415000  0.52805000  0.27372000  1.0
  C  C43  1  0.27310000  0.34723000  0.66646000  1.0
  C  C44  1  0.72691000  0.65277000  0.33354000  1.0
  C  C45  1  0.40990000  0.29933000  0.61843000  1.0
  C  C46  1  0.59010000  0.70067000  0.38157000  1.0
  C  C47  1  0.09564000  0.52658000  0.76537000  1.0
  C  C48  1  0.90436000  0.47342000  0.23463000  1.0
  C  C49  1  0.06495000  0.62342000  0.86310000  1.0
  C  C50  1  0.93505000  0.37658000  0.13690000  1.0
  C  C51  1  0.14915000  0.61430000  0.96246000  1.0
  C  C52  1  0.85085000  0.38570000  0.03754000  1.0
  C  C53  1  0.10921000  0.70053000  0.05613000  1.0
  C  C54  1  0.89079000  0.29947000  0.94387000  1.0
  C  C55  1  0.98516000  0.80052000  0.05055000  1.0
  C  C56  1  0.01484000  0.19947000  0.94945000  1.0
  C  C57  1  0.90086000  0.81118000  0.95125000  1.0
  C  C58  1  0.09914000  0.18882000  0.04875000  1.0
  C  C59  1  0.93965000  0.72197000  0.85999000  1.0
  C  C60  1  0.06035000  0.27803000  0.14001000  1.0
  C  C61  1  0.01940000  0.89530000  0.24413000  1.0
  C  C62  1  0.98059000  0.10470000  0.75587000  1.0
  C  C63  1  0.81059000  0.97064000  0.16594000  1.0
  C  C64  1  0.18941000  0.02936000  0.83406000  1.0
  C  C65  1  0.81283000  0.02498000  0.27465000  1.0
  C  C66  1  0.18716000  0.97502000  0.72534000  1.0
  C  C67  1  0.73392000  0.87360000  0.62319000  1.0
  C  C68  1  0.26606000  0.12639000  0.37681000  1.0
  S  S69  1  0.58197000  0.85221000  0.69796000  1.0
  S  S70  1  0.41800000  0.14780000  0.30204000  1.0
  N  N71  1  0.85321000  0.18935000  0.51083000  1.0
  N  N72  1  0.14679000  0.81064000  0.48917000  1.0
  N  N73  1  0.66368000  0.33158000  0.57957000  1.0
  N  N74  1  0.33633000  0.66842000  0.42043000  1.0
  N  N75  1  0.94233000  0.88706000  0.14679000  1.0
  N  N76  1  0.05766000  0.11294000  0.85321000  1.0
  N  N77  1  0.94315000  0.97647000  0.32316000  1.0
  N  N78  1  0.05683000  0.02353000  0.67684000  1.0
  N  N79  1  0.84444000  0.89505000  0.56822000  1.0
  N  N80  1  0.15554000  0.10495000  0.43177000  1.0
  O  O81  1  0.99470000  0.49364000  0.71432000  1.0
  O  O82  1  0.00531000  0.50635000  0.28569000  1.0
