# generated using pymatgen
data_Zn2H22C27(NO2)4
_symmetry_space_group_name_H-M   'P 1'
_cell_length_a   9.88266000
_cell_length_b   10.97380000
_cell_length_c   13.99120000
_cell_angle_alpha   88.32940000
_cell_angle_beta   80.65940000
_cell_angle_gamma   89.17510000
_symmetry_Int_Tables_number   1
_chemical_formula_structural   Zn2H22C27(NO2)4
_chemical_formula_sum   'Zn2 H22 C27 N4 O8'
_cell_volume   1496.52345061
_cell_formula_units_Z   1
loop_
 _symmetry_equiv_pos_site_id
 _symmetry_equiv_pos_as_xyz
  1  'x, y, z'
loop_
 _atom_site_type_symbol
 _atom_site_label
 _atom_site_symmetry_multiplicity
 _atom_site_fract_x
 _atom_site_fract_y
 _atom_site_fract_z
 _atom_site_occupancy
  Zn  Zn0  1  0.35862000  0.50824000  0.50856000  1.0
  Zn  Zn1  1  0.65364000  0.50493000  0.49718000  1.0
  H  H2  1  0.35356000  0.47723000  0.03549000  1.0
  H  H3  1  0.28308000  0.56076000  0.32850000  1.0
  H  H4  1  0.13561000  0.57496000  0.27279000  1.0
  H  H5  1  0.04458000  0.54935000  0.82750000  1.0
  H  H6  1  0.18530000  0.59375000  0.73819000  1.0
  H  H7  1  0.01877000  0.65751000  0.73429000  1.0
  H  H8  1  0.72847000  0.31083000  0.69217000  1.0
  H  H9  1  0.89922000  0.25347000  0.66530000  1.0
  H  H10  1  0.83076000  0.29537000  0.78578000  1.0
  H  H11  1  0.77783000  0.52964000  0.97906000  1.0
  H  H12  1  0.69046000  0.51077000  0.88237000  1.0
  H  H13  1  0.09854000  0.38622000  0.70620000  1.0
  H  H14  1  0.24094000  0.23133000  0.67133000  1.0
  H  H15  1  0.10735000  0.12566000  0.71399000  1.0
  H  H16  1  0.28081000  0.08882000  0.72368000  1.0
  H  H17  1  0.81862000  0.51550000  0.72903000  1.0
  H  H18  1  0.71618000  0.89472000  0.43494000  1.0
  H  H19  1  0.71358000  0.12138000  0.43380000  1.0
  H  H20  1  0.16494000  0.12045000  0.53238000  1.0
  H  H21  1  0.21891000  0.88786000  0.64858000  1.0
  H  H22  1  0.16699000  0.89275000  0.53219000  1.0
  H  H23  1  0.90686000  0.54765000  0.35316000  1.0
  C  C24  1  0.50595000  0.73978000  0.49899000  1.0
  C  C25  1  0.23579000  0.93324000  0.57659000  1.0
  C  C26  1  0.91794000  0.48561000  0.57984000  1.0
  C  C27  1  0.47184000  0.49180000  0.69099000  1.0
  C  C28  1  0.94979000  0.53188000  0.41960000  1.0
  C  C29  1  0.09457000  0.53935000  0.41793000  1.0
  C  C30  1  0.05707000  0.49591000  0.57975000  1.0
  C  C31  1  0.04424000  0.46970000  0.68826000  1.0
  C  C32  1  0.88476000  0.44873000  0.68606000  1.0
  C  C33  1  0.49845000  0.27372000  0.49393000  1.0
  C  C34  1  0.56479000  0.51311000  0.30752000  1.0
  C  C35  1  0.45588000  0.48563000  0.79494000  1.0
  C  C36  1  0.57295000  0.50805000  0.20342000  1.0
  C  C37  1  0.57080000  0.49676000  0.01583000  1.0
  C  C38  1  0.44701000  0.48526000  0.98269000  1.0
  C  C39  1  0.44393000  0.48369000  0.88359000  1.0
  C  C40  1  0.57348000  0.50190000  0.11652000  1.0
  C  C41  1  0.07530000  0.57435000  0.75038000  1.0
  C  C42  1  0.83265000  0.31950000  0.70876000  1.0
  C  C43  1  0.21418000  0.13423000  0.67742000  1.0
  C  C44  1  0.38452000  0.94242000  0.52897000  1.0
  C  C45  1  0.50303000  0.87547000  0.49608000  1.0
  C  C46  1  0.62155000  0.94402000  0.46124000  1.0
  C  C47  1  0.62002000  0.07117000  0.46050000  1.0
  C  C48  1  0.49928000  0.13798000  0.49373000  1.0
  C  C49  1  0.38281000  0.06960000  0.52740000  1.0
  C  C50  1  0.23461000  0.07788000  0.57780000  1.0
  N  N51  1  0.86111000  0.50381000  0.49977000  1.0
  N  N52  1  0.15035000  0.52011000  0.50098000  1.0
  N  N53  1  0.17745000  0.56632000  0.33396000  1.0
  N  N54  1  0.69363000  0.50058000  0.95438000  1.0
  O  O55  1  0.39023000  0.68717000  0.52219000  1.0
  O  O56  1  0.62200000  0.68634000  0.47877000  1.0
  O  O57  1  0.36547000  0.47161000  0.65293000  1.0
  O  O58  1  0.59147000  0.51720000  0.64604000  1.0
  O  O59  1  0.38568000  0.32759000  0.48490000  1.0
  O  O60  1  0.60997000  0.32518000  0.50383000  1.0
  O  O61  1  0.44583000  0.53620000  0.35511000  1.0
  O  O62  1  0.67371000  0.49410000  0.34260000  1.0
