# generated using pymatgen
data_TmH15C11O6
_symmetry_space_group_name_H-M   'P 1'
_cell_length_a   8.06546000
_cell_length_b   10.66380000
_cell_length_c   14.73650000
_cell_angle_alpha   90.00000000
_cell_angle_beta   90.00000000
_cell_angle_gamma   89.99990000
_symmetry_Int_Tables_number   1
_chemical_formula_structural   TmH15C11O6
_chemical_formula_sum   'Tm4 H60 C44 O24'
_cell_volume   1267.46355802
_cell_formula_units_Z   4
loop_
 _symmetry_equiv_pos_site_id
 _symmetry_equiv_pos_as_xyz
  1  'x, y, z'
loop_
 _atom_site_type_symbol
 _atom_site_label
 _atom_site_symmetry_multiplicity
 _atom_site_fract_x
 _atom_site_fract_y
 _atom_site_fract_z
 _atom_site_occupancy
  Tm  Tm0  1  0.07836000  0.79943000  0.49850000  1.0
  Tm  Tm1  1  0.42164000  0.20058000  0.99850000  1.0
  Tm  Tm2  1  0.92164000  0.29942000  0.00150000  1.0
  Tm  Tm3  1  0.57836000  0.70058000  0.50150000  1.0
  H  H4  1  0.15219000  0.43690000  0.22926000  1.0
  H  H5  1  0.34782000  0.56310000  0.72926000  1.0
  H  H6  1  0.84781000  0.93690000  0.27074000  1.0
  H  H7  1  0.65219000  0.06310000  0.77074000  1.0
  H  H8  1  0.18480000  0.53818000  0.32294000  1.0
  H  H9  1  0.31520000  0.46182000  0.82295000  1.0
  H  H10  1  0.81520000  0.03818000  0.17706000  1.0
  H  H11  1  0.68481000  0.96182000  0.67706000  1.0
  H  H12  1  0.35686000  0.48228000  0.26092000  1.0
  H  H13  1  0.14315000  0.51772000  0.76092000  1.0
  H  H14  1  0.64315000  0.98228000  0.23908000  1.0
  H  H15  1  0.85686000  0.01772000  0.73908000  1.0
  H  H16  1  0.26915000  0.82761000  0.19760000  1.0
  H  H17  1  0.23084000  0.17239000  0.69760000  1.0
  H  H18  1  0.73083000  0.32761000  0.30240000  1.0
  H  H19  1  0.76916000  0.67239000  0.80239000  1.0
  H  H20  1  0.44103000  0.98696000  0.60532000  1.0
  H  H21  1  0.05898000  0.01304000  0.10532000  1.0
  H  H22  1  0.55897000  0.48696000  0.89468000  1.0
  H  H23  1  0.94102000  0.51305000  0.39468000  1.0
  H  H24  1  0.59410000  0.70714000  0.23057000  1.0
  H  H25  1  0.90590000  0.29287000  0.73057000  1.0
  H  H26  1  0.40589000  0.20713000  0.26943000  1.0
  H  H27  1  0.09411000  0.79286000  0.76944000  1.0
  H  H28  1  0.53177000  0.80604000  0.14073000  1.0
  H  H29  1  0.96822000  0.19396000  0.64074000  1.0
  H  H30  1  0.46822000  0.30604000  0.35927000  1.0
  H  H31  1  0.03177000  0.69395000  0.85927000  1.0
  H  H32  1  0.95212000  0.59210000  0.16172000  1.0
  H  H33  1  0.54788000  0.40789000  0.66172000  1.0
  H  H34  1  0.04788000  0.09211000  0.33828000  1.0
  H  H35  1  0.45213000  0.90789000  0.83828000  1.0
  H  H36  1  0.01132000  0.75093000  0.14369000  1.0
  H  H37  1  0.48868000  0.24907000  0.64369000  1.0
  H  H38  1  0.98867000  0.25094000  0.35631000  1.0
  H  H39  1  0.51132000  0.74906000  0.85631000  1.0
  H  H40  1  0.98729000  0.69450000  0.25569000  1.0
  H  H41  1  0.51270000  0.30550000  0.75570000  1.0
  H  H42  1  0.01270000  0.19451000  0.24430000  1.0
  H  H43  1  0.48730000  0.80549000  0.74430000  1.0
  H  H44  1  0.11128000  0.68910000  0.00891000  1.0
  H  H45  1  0.38872000  0.31090000  0.50891000  1.0
  H  H46  1  0.88871000  0.18910000  0.49109000  1.0
  H  H47  1  0.61128000  0.81090000  0.99109000  1.0
  H  H48  1  0.31008000  0.67346000  0.95901000  1.0
  H  H49  1  0.18993000  0.32654000  0.45901000  1.0
  H  H50  1  0.68992000  0.17346000  0.54099000  1.0
  H  H51  1  0.81008000  0.82654000  0.04099000  1.0
  H  H52  1  0.27683000  0.79010000  0.04274000  1.0
  H  H53  1  0.22317000  0.20990000  0.54274000  1.0
  H  H54  1  0.72316000  0.29010000  0.45727000  1.0
  H  H55  1  0.77684000  0.70990000  0.95727000  1.0
  H  H56  1  0.55423000  0.61702000  0.05386000  1.0
  H  H57  1  0.94577000  0.38299000  0.55386000  1.0
  H  H58  1  0.44576000  0.11701000  0.44614000  1.0
  H  H59  1  0.05423000  0.88298000  0.94614000  1.0
  H  H60  1  0.52433000  0.52145000  0.14957000  1.0
  H  H61  1  0.97567000  0.47855000  0.64957000  1.0
  H  H62  1  0.47566000  0.02145000  0.35043000  1.0
  H  H63  1  0.02433000  0.97855000  0.85043000  1.0
  C  C64  1  0.22844000  0.51491000  0.25429000  1.0
  C  C65  1  0.27156000  0.48509000  0.75430000  1.0
  C  C66  1  0.77156000  0.01491000  0.24570000  1.0
  C  C67  1  0.72844000  0.98509000  0.74571000  1.0
  C  C68  1  0.32722000  0.75194000  0.32526000  1.0
  C  C69  1  0.17277000  0.24806000  0.82526000  1.0
  C  C70  1  0.67276000  0.25194000  0.17474000  1.0
  C  C71  1  0.82724000  0.74806000  0.67474000  1.0
  C  C72  1  0.32631000  0.74095000  0.22314000  1.0
  C  C73  1  0.17369000  0.25905000  0.72314000  1.0
  C  C74  1  0.67369000  0.24095000  0.27686000  1.0
  C  C75  1  0.82631000  0.75905000  0.77686000  1.0
  C  C76  1  0.21220000  0.62899000  0.19088000  1.0
  C  C77  1  0.28780000  0.37101000  0.69088000  1.0
  C  C78  1  0.78779000  0.12899000  0.30912000  1.0
  C  C79  1  0.71221000  0.87100000  0.80912000  1.0
  C  C80  1  0.33640000  0.93310000  0.57670000  1.0
  C  C81  1  0.16360000  0.06690000  0.07670000  1.0
  C  C82  1  0.66360000  0.43310000  0.92330000  1.0
  C  C83  1  0.83639000  0.56691000  0.42330000  1.0
  C  C84  1  0.49801000  0.72149000  0.17902000  1.0
  C  C85  1  0.00198000  0.27851000  0.67903000  1.0
  C  C86  1  0.50198000  0.22149000  0.32098000  1.0
  C  C87  1  0.99802000  0.77851000  0.82098000  1.0
  C  C88  1  0.02989000  0.66871000  0.18740000  1.0
  C  C89  1  0.47011000  0.33129000  0.68740000  1.0
  C  C90  1  0.97011000  0.16872000  0.31260000  1.0
  C  C91  1  0.52989000  0.83128000  0.81260000  1.0
  C  C92  1  0.29396000  0.59815000  0.09622000  1.0
  C  C93  1  0.20604000  0.40185000  0.59622000  1.0
  C  C94  1  0.70603000  0.09815000  0.40378000  1.0
  C  C95  1  0.79396000  0.90185000  0.90378000  1.0
  C  C96  1  0.24263000  0.47167000  0.05743000  1.0
  C  C97  1  0.25738000  0.52833000  0.55743000  1.0
  C  C98  1  0.75737000  0.97167000  0.44257000  1.0
  C  C99  1  0.74263000  0.02833000  0.94256000  1.0
  C  C100  1  0.24456000  0.69402000  0.02271000  1.0
  C  C101  1  0.25544000  0.30598000  0.52271000  1.0
  C  C102  1  0.75543000  0.19402000  0.47729000  1.0
  C  C103  1  0.74456000  0.80598000  0.97729000  1.0
  C  C104  1  0.48089000  0.60737000  0.11607000  1.0
  C  C105  1  0.01911000  0.39263000  0.61607000  1.0
  C  C106  1  0.51911000  0.10737000  0.38392000  1.0
  C  C107  1  0.98089000  0.89262000  0.88393000  1.0
  O  O108  1  0.35753000  0.81540000  0.55942000  1.0
  O  O109  1  0.14248000  0.18459000  0.05942000  1.0
  O  O110  1  0.64248000  0.31541000  0.94058000  1.0
  O  O111  1  0.85752000  0.68461000  0.44058000  1.0
  O  O112  1  0.45086000  0.71093000  0.36986000  1.0
  O  O113  1  0.04914000  0.28907000  0.86987000  1.0
  O  O114  1  0.54913000  0.21093000  0.13014000  1.0
  O  O115  1  0.95087000  0.78907000  0.63014000  1.0
  O  O116  1  0.19964000  0.79952000  0.36361000  1.0
  O  O117  1  0.30036000  0.20047000  0.86361000  1.0
  O  O118  1  0.80034000  0.29952000  0.13639000  1.0
  O  O119  1  0.69965000  0.70048000  0.63639000  1.0
  O  O120  1  0.19926000  0.98493000  0.56171000  1.0
  O  O121  1  0.30075000  0.01507000  0.06171000  1.0
  O  O122  1  0.80075000  0.48493000  0.93829000  1.0
  O  O123  1  0.69925000  0.51509000  0.43829000  1.0
  O  O124  1  0.35488000  0.40036000  0.02507000  1.0
  O  O125  1  0.14512000  0.59964000  0.52507000  1.0
  O  O126  1  0.64511000  0.90036000  0.47493000  1.0
  O  O127  1  0.85489000  0.09964000  0.97493000  1.0
  O  O128  1  0.08874000  0.44614000  0.05414000  1.0
  O  O129  1  0.41126000  0.55386000  0.55414000  1.0
  O  O130  1  0.91125000  0.94615000  0.44587000  1.0
  O  O131  1  0.58875000  0.05386000  0.94586000  1.0
