# generated using pymatgen
data_CdH8C13SN5O3
_symmetry_space_group_name_H-M   'P 1'
_cell_length_a   6.83416000
_cell_length_b   10.64210000
_cell_length_c   20.30730000
_cell_angle_alpha   90.00000000
_cell_angle_beta   90.00000000
_cell_angle_gamma   100.52300000
_symmetry_Int_Tables_number   1
_chemical_formula_structural   CdH8C13SN5O3
_chemical_formula_sum   'Cd4 H32 C52 S4 N20 O12'
_cell_volume   1452.10639316
_cell_formula_units_Z   4
loop_
 _symmetry_equiv_pos_site_id
 _symmetry_equiv_pos_as_xyz
  1  'x, y, z'
loop_
 _atom_site_type_symbol
 _atom_site_label
 _atom_site_symmetry_multiplicity
 _atom_site_fract_x
 _atom_site_fract_y
 _atom_site_fract_z
 _atom_site_occupancy
  Cd  Cd0  1  0.22567000  0.27655000  0.90090000  1.0
  Cd  Cd1  1  0.27431000  0.22345000  0.40090000  1.0
  Cd  Cd2  1  0.77433000  0.72345000  0.09910000  1.0
  Cd  Cd3  1  0.72568000  0.77655000  0.59910000  1.0
  H  H4  1  0.57072000  0.10296000  0.11520000  1.0
  H  H5  1  0.92928000  0.39704000  0.61520000  1.0
  H  H6  1  0.42927000  0.89704000  0.88480000  1.0
  H  H7  1  0.07072000  0.60296000  0.38480000  1.0
  H  H8  1  0.11869000  0.74872000  0.73454000  1.0
  H  H9  1  0.38131000  0.75128000  0.23454000  1.0
  H  H10  1  0.88130000  0.25128000  0.26546000  1.0
  H  H11  1  0.61869000  0.24872000  0.76546000  1.0
  H  H12  1  0.25162000  0.36861000  0.74977000  1.0
  H  H13  1  0.24838000  0.13139000  0.24977000  1.0
  H  H14  1  0.74839000  0.63139000  0.25023000  1.0
  H  H15  1  0.75162000  0.86861000  0.75023000  1.0
  H  H16  1  0.31641000  0.43984000  0.15116000  1.0
  H  H17  1  0.18359000  0.06016000  0.65115000  1.0
  H  H18  1  0.68359000  0.56016000  0.84884000  1.0
  H  H19  1  0.81641000  0.93984000  0.34884000  1.0
  H  H20  1  0.03263000  0.73633000  0.85311000  1.0
  H  H21  1  0.46738000  0.76367000  0.35311000  1.0
  H  H22  1  0.96737000  0.26367000  0.14689000  1.0
  H  H23  1  0.53263000  0.23633000  0.64689000  1.0
  H  H24  1  0.51620000  0.28326000  0.19069000  1.0
  H  H25  1  0.98380000  0.21674000  0.69069000  1.0
  H  H26  1  0.48380000  0.71674000  0.80931000  1.0
  H  H27  1  0.01621000  0.78326000  0.30931000  1.0
  H  H28  1  0.41802000  0.09224000  0.00272000  1.0
  H  H29  1  0.08197000  0.40776000  0.50273000  1.0
  H  H30  1  0.58197000  0.90776000  0.99728000  1.0
  H  H31  1  0.91803000  0.59224000  0.49728000  1.0
  H  H32  1  0.22673000  0.56018000  0.68011000  1.0
  H  H33  1  0.27327000  0.93981000  0.18011000  1.0
  H  H34  1  0.77327000  0.43982000  0.31989000  1.0
  H  H35  1  0.72673000  0.06018000  0.81989000  1.0
  C  C36  1  0.02893000  0.52279000  0.93377000  1.0
  C  C37  1  0.47107000  0.97721000  0.43377000  1.0
  C  C38  1  0.97107000  0.47721000  0.06623000  1.0
  C  C39  1  0.52894000  0.02280000  0.56623000  1.0
  C  C40  1  0.11661000  0.42588000  0.03080000  1.0
  C  C41  1  0.38339000  0.07412000  0.53080000  1.0
  C  C42  1  0.88338000  0.57412000  0.96920000  1.0
  C  C43  1  0.61662000  0.92588000  0.46920000  1.0
  C  C44  1  0.48113000  0.17307000  0.10033000  1.0
  C  C45  1  0.01887000  0.32692000  0.60033000  1.0
  C  C46  1  0.51886000  0.82693000  0.89967000  1.0
  C  C47  1  0.98114000  0.67308000  0.39967000  1.0
  C  C48  1  0.12303000  0.66139000  0.76188000  1.0
  C  C49  1  0.37697000  0.83861000  0.26188000  1.0
  C  C50  1  0.87697000  0.33861000  0.23812000  1.0
  C  C51  1  0.62303000  0.16139000  0.73812000  1.0
  C  C52  1  0.07938000  0.54101000  0.86280000  1.0
  C  C53  1  0.42061000  0.95899000  0.36280000  1.0
  C  C54  1  0.92061000  0.45899000  0.13720000  1.0
  C  C55  1  0.57939000  0.04101000  0.63720000  1.0
  C  C56  1  0.19722000  0.45053000  0.77009000  1.0
  C  C57  1  0.30277000  0.04947000  0.27009000  1.0
  C  C58  1  0.80278000  0.54947000  0.22991000  1.0
  C  C59  1  0.69723000  0.95053000  0.72991000  1.0
  C  C60  1  0.33697000  0.36006000  0.11996000  1.0
  C  C61  1  0.16303000  0.13994000  0.61996000  1.0
  C  C62  1  0.66302000  0.63994000  0.88004000  1.0
  C  C63  1  0.83698000  0.86006000  0.38004000  1.0
  C  C64  1  0.07192000  0.65375000  0.82840000  1.0
  C  C65  1  0.42808000  0.84625000  0.32840000  1.0
  C  C66  1  0.92808000  0.34625000  0.17160000  1.0
  C  C67  1  0.57192000  0.15376000  0.67160000  1.0
  C  C68  1  0.25038000  0.34310000  0.05752000  1.0
  C  C69  1  0.24961000  0.15690000  0.55752000  1.0
  C  C70  1  0.74961000  0.65690000  0.94248000  1.0
  C  C71  1  0.75039000  0.84310000  0.44248000  1.0
  C  C72  1  0.45189000  0.27264000  0.14159000  1.0
  C  C73  1  0.04811000  0.22736000  0.64159000  1.0
  C  C74  1  0.54810000  0.72736000  0.85841000  1.0
  C  C75  1  0.95190000  0.77264000  0.35841000  1.0
  C  C76  1  0.39686000  0.16643000  0.03758000  1.0
  C  C77  1  0.10313000  0.33357000  0.53758000  1.0
  C  C78  1  0.60313000  0.83357000  0.96242000  1.0
  C  C79  1  0.89687000  0.66643000  0.46243000  1.0
  C  C80  1  0.18422000  0.55751000  0.73185000  1.0
  C  C81  1  0.31577000  0.94249000  0.23185000  1.0
  C  C82  1  0.81578000  0.44249000  0.26815000  1.0
  C  C83  1  0.68423000  0.05751000  0.76815000  1.0
  C  C84  1  0.68402000  0.24850000  0.91097000  1.0
  C  C85  1  0.81596000  0.25150000  0.41097000  1.0
  C  C86  1  0.31597000  0.75149000  0.08904000  1.0
  C  C87  1  0.18403000  0.74851000  0.58903000  1.0
  S  S88  1  0.83842000  0.16287000  0.94013000  1.0
  S  S89  1  0.66157000  0.33713000  0.44013000  1.0
  S  S90  1  0.16159000  0.83712000  0.05987000  1.0
  S  S91  1  0.33843000  0.66288000  0.55987000  1.0
  N  N92  1  0.13745000  0.45023000  0.96632000  1.0
  N  N93  1  0.36255000  0.04977000  0.46632000  1.0
  N  N94  1  0.86255000  0.54977000  0.03368000  1.0
  N  N95  1  0.63745000  0.95023000  0.53368000  1.0
  N  N96  1  0.14597000  0.44237000  0.83381000  1.0
  N  N97  1  0.35403000  0.05763000  0.33380000  1.0
  N  N98  1  0.85403000  0.55763000  0.16619000  1.0
  N  N99  1  0.64598000  0.94238000  0.66619000  1.0
  N  N100  1  0.28546000  0.24957000  0.01647000  1.0
  N  N101  1  0.21453000  0.25043000  0.51647000  1.0
  N  N102  1  0.71453000  0.75043000  0.98353000  1.0
  N  N103  1  0.78547000  0.74957000  0.48353000  1.0
  N  N104  1  0.56651000  0.30858000  0.89044000  1.0
  N  N105  1  0.93348000  0.19142000  0.39044000  1.0
  N  N106  1  0.43349000  0.69141000  0.10957000  1.0
  N  N107  1  0.06652000  0.80858000  0.60956000  1.0
  N  N108  1  0.18952000  0.05076000  0.81925000  1.0
  N  N109  1  0.31048000  0.44924000  0.31925000  1.0
  N  N110  1  0.81048000  0.94924000  0.18075000  1.0
  N  N111  1  0.68952000  0.55076000  0.68075000  1.0
  O  O112  1  0.22918000  0.04099000  0.88048000  1.0
  O  O113  1  0.27081000  0.45901000  0.38048000  1.0
  O  O114  1  0.77082000  0.95901000  0.11952000  1.0
  O  O115  1  0.72919000  0.54099000  0.61952000  1.0
  O  O116  1  0.17161000  0.16150000  0.79738000  1.0
  O  O117  1  0.32839000  0.33850000  0.29738000  1.0
  O  O118  1  0.82840000  0.83850000  0.20262000  1.0
  O  O119  1  0.67160000  0.66150000  0.70262000  1.0
  O  O120  1  0.16839000  0.95667000  0.78170000  1.0
  O  O121  1  0.33161000  0.54333000  0.28170000  1.0
  O  O122  1  0.83161000  0.04333000  0.21830000  1.0
  O  O123  1  0.66839000  0.45667000  0.71830000  1.0
