# generated using pymatgen
data_ZnH21C26N2O9
_symmetry_space_group_name_H-M   'P 1'
_cell_length_a   9.55467000
_cell_length_b   10.91490000
_cell_length_c   23.62530000
_cell_angle_alpha   89.95370000
_cell_angle_beta   88.46720000
_cell_angle_gamma   89.25790000
_symmetry_Int_Tables_number   1
_chemical_formula_structural   ZnH21C26N2O9
_chemical_formula_sum   'Zn2 H42 C52 N4 O18'
_cell_volume   2462.75313710
_cell_formula_units_Z   2
loop_
 _symmetry_equiv_pos_site_id
 _symmetry_equiv_pos_as_xyz
  1  'x, y, z'
loop_
 _atom_site_type_symbol
 _atom_site_label
 _atom_site_symmetry_multiplicity
 _atom_site_fract_x
 _atom_site_fract_y
 _atom_site_fract_z
 _atom_site_occupancy
  Zn  Zn0  1  0.65002000  0.50320000  0.50155000  1.0
  Zn  Zn1  1  0.35106000  0.50307000  0.50009000  1.0
  H  H2  1  0.26742000  0.72420000  0.95437000  1.0
  H  H3  1  0.32155000  0.89692000  0.44463000  1.0
  H  H4  1  0.47734000  0.11180000  0.40896000  1.0
  H  H5  1  0.31905000  0.11184000  0.44819000  1.0
  H  H6  1  0.13708000  0.60796000  0.42371000  1.0
  H  H7  1  0.89255000  0.57011000  0.41693000  1.0
  H  H8  1  0.29114000  0.72907000  0.06097000  1.0
  H  H9  1  0.11004000  0.69513000  0.48651000  1.0
  H  H10  1  0.87079000  0.68958000  0.46787000  1.0
  H  H11  1  0.11415000  0.38729000  0.43047000  1.0
  H  H12  1  0.87041000  0.35921000  0.44465000  1.0
  H  H13  1  0.69247000  0.57396000  0.68093000  1.0
  H  H14  1  0.10662000  0.43440000  0.58129000  1.0
  H  H15  1  0.86330000  0.48229000  0.58907000  1.0
  H  H16  1  0.13070000  0.59486000  0.57887000  1.0
  H  H17  1  0.89025000  0.63587000  0.56623000  1.0
  H  H18  1  0.13203000  0.31267000  0.49661000  1.0
  H  H19  1  0.88942000  0.32128000  0.51670000  1.0
  H  H20  1  0.71375000  0.24282000  0.93972000  1.0
  H  H21  1  0.32166000  0.40689000  0.32160000  1.0
  H  H22  1  0.71985000  0.58379000  0.32120000  1.0
  H  H23  1  0.72709000  0.58179000  0.21496000  1.0
  H  H24  1  0.28420000  0.41253000  0.67720000  1.0
  H  H25  1  0.68011000  0.57262000  0.78680000  1.0
  H  H26  1  0.70329000  0.87479000  0.58694000  1.0
  H  H27  1  0.40982000  0.77147000  0.60765000  1.0
  H  H28  1  0.70189000  0.12839000  0.41292000  1.0
  H  H29  1  0.20440000  0.11821000  0.53023000  1.0
  H  H30  1  0.94503000  0.20812000  0.09099000  1.0
  H  H31  1  0.88420000  0.36235000  0.09053000  1.0
  H  H32  1  0.01685000  0.22541000  0.98822000  1.0
  H  H33  1  0.95436000  0.37842000  0.98695000  1.0
  H  H34  1  0.13428000  0.43805000  0.05864000  1.0
  H  H35  1  0.27534000  0.40487000  0.78313000  1.0
  H  H36  1  0.21405000  0.37325000  0.99672000  1.0
  H  H37  1  0.19801000  0.28570000  0.05998000  1.0
  H  H38  1  0.21734000  0.34362000  0.24330000  1.0
  H  H39  1  0.69609000  0.89712000  0.45720000  1.0
  H  H40  1  0.29956000  0.91150000  0.54228000  1.0
  H  H41  1  0.69886000  0.09830000  0.54220000  1.0
  H  H42  1  0.48635000  0.09862000  0.59214000  1.0
  H  H43  1  0.48647000  0.89833000  0.40914000  1.0
  C  C44  1  0.49395000  0.74267000  0.50121000  1.0
  C  C45  1  0.61129000  0.40367000  0.12000000  1.0
  C  C46  1  0.41497000  0.43995000  0.23892000  1.0
  C  C47  1  0.51056000  0.50298000  0.39131000  1.0
  C  C48  1  0.41091000  0.44492000  0.29809000  1.0
  C  C49  1  0.51919000  0.49731000  0.32794000  1.0
  C  C50  1  0.63467000  0.54440000  0.29778000  1.0
  C  C51  1  0.63896000  0.54281000  0.23870000  1.0
  C  C52  1  0.52962000  0.49210000  0.20937000  1.0
  C  C53  1  0.59443000  0.53696000  0.76239000  1.0
  C  C54  1  0.60094000  0.53792000  0.70352000  1.0
  C  C55  1  0.33454000  0.65895000  0.97610000  1.0
  C  C56  1  0.48851000  0.49403000  0.67288000  1.0
  C  C57  1  0.37013000  0.44799000  0.70150000  1.0
  C  C58  1  0.36528000  0.44337000  0.76045000  1.0
  C  C59  1  0.50234000  0.26216000  0.49905000  1.0
  C  C60  1  0.47734000  0.48830000  0.79040000  1.0
  C  C61  1  0.65005000  0.92686000  0.49828000  1.0
  C  C62  1  0.40890000  0.93569000  0.55158000  1.0
  C  C63  1  0.65268000  0.07048000  0.50205000  1.0
  C  C64  1  0.42439000  0.07656000  0.55495000  1.0
  C  C65  1  0.42783000  0.93329000  0.44656000  1.0
  C  C66  1  0.34808000  0.66171000  0.03492000  1.0
  C  C67  1  0.49686000  0.88297000  0.50019000  1.0
  C  C68  1  0.50184000  0.12216000  0.50036000  1.0
  C  C69  1  0.42649000  0.07503000  0.44749000  1.0
  C  C70  1  0.08179000  0.61034000  0.46503000  1.0
  C  C71  1  0.92180000  0.60089000  0.45916000  1.0
  C  C72  1  0.08142000  0.38987000  0.47534000  1.0
  C  C73  1  0.92116000  0.38632000  0.48361000  1.0
  C  C74  1  0.07790000  0.51855000  0.55864000  1.0
  C  C75  1  0.91828000  0.53971000  0.55782000  1.0
  C  C76  1  0.49482000  0.49627000  0.60972000  1.0
  C  C77  1  0.43494000  0.57813000  0.06195000  1.0
  C  C78  1  0.56080000  0.39149000  0.87590000  1.0
  C  C79  1  0.39410000  0.57077000  0.88166000  1.0
  C  C80  1  0.40811000  0.57139000  0.94413000  1.0
  C  C81  1  0.49677000  0.48547000  0.97076000  1.0
  C  C82  1  0.57006000  0.39478000  0.93851000  1.0
  C  C83  1  0.74624000  0.87577000  0.54270000  1.0
  C  C84  1  0.43678000  0.87075000  0.60732000  1.0
  C  C85  1  0.75039000  0.11426000  0.45501000  1.0
  C  C86  1  0.27969000  0.13355000  0.56497000  1.0
  C  C87  1  0.90408000  0.28119000  0.06387000  1.0
  C  C88  1  0.51260000  0.48843000  0.03061000  1.0
  C  C89  1  0.00328000  0.30871000  0.01412000  1.0
  C  C90  1  0.14508000  0.35369000  0.03345000  1.0
  C  C91  1  0.29742000  0.37795000  0.21187000  1.0
  C  C92  1  0.60442000  0.40370000  0.05756000  1.0
  C  C93  1  0.67912000  0.31728000  0.02374000  1.0
  C  C94  1  0.65660000  0.31162000  0.96483000  1.0
  C  C95  1  0.44302000  0.58343000  0.12411000  1.0
  N  N96  1  0.47613000  0.48300000  0.85148000  1.0
  N  N97  1  0.53257000  0.49642000  0.14852000  1.0
  N  N98  1  0.13497000  0.50583000  0.49947000  1.0
  N  N99  1  0.86602000  0.50939000  0.50055000  1.0
  O  O100  1  0.60626000  0.68880000  0.51586000  1.0
  O  O101  1  0.31786000  0.64306000  0.85672000  1.0
  O  O102  1  0.37682000  0.65753000  0.15395000  1.0
  O  O103  1  0.67743000  0.32895000  0.14814000  1.0
  O  O104  1  0.86858000  0.84664000  0.53261000  1.0
  O  O105  1  0.48301000  0.91961000  0.64909000  1.0
  O  O106  1  0.87661000  0.12505000  0.45995000  1.0
  O  O107  1  0.24081000  0.18365000  0.60885000  1.0
  O  O108  1  0.77239000  0.23426000  0.04358000  1.0
  O  O109  1  0.28297000  0.36128000  0.16113000  1.0
  O  O110  1  0.38102000  0.69139000  0.48832000  1.0
  O  O111  1  0.62095000  0.53338000  0.41665000  1.0
  O  O112  1  0.39328000  0.47716000  0.41493000  1.0
  O  O113  1  0.61696000  0.31469000  0.48636000  1.0
  O  O114  1  0.38566000  0.31505000  0.50977000  1.0
  O  O115  1  0.61251000  0.47174000  0.58530000  1.0
  O  O116  1  0.38209000  0.52346000  0.58459000  1.0
  O  O117  1  0.62436000  0.31566000  0.84635000  1.0
