# generated using pymatgen
data_ZnH8C13SN3ClO3
_symmetry_space_group_name_H-M   'P 1'
_cell_length_a   7.13478000
_cell_length_b   8.42391000
_cell_length_c   11.80570000
_cell_angle_alpha   89.99970000
_cell_angle_beta   89.99940000
_cell_angle_gamma   108.92000000
_symmetry_Int_Tables_number   1
_chemical_formula_structural   ZnH8C13SN3ClO3
_chemical_formula_sum   'Zn2 H16 C26 S2 N6 Cl2 O6'
_cell_volume   671.21930082
_cell_formula_units_Z   2
loop_
 _symmetry_equiv_pos_site_id
 _symmetry_equiv_pos_as_xyz
  1  'x, y, z'
loop_
 _atom_site_type_symbol
 _atom_site_label
 _atom_site_symmetry_multiplicity
 _atom_site_fract_x
 _atom_site_fract_y
 _atom_site_fract_z
 _atom_site_occupancy
  Zn  Zn0  1  0.23324000  0.50118000  0.36112000  1.0
  Zn  Zn1  1  0.73323000  0.50117000  0.63889000  1.0
  H  H2  1  0.90600000  0.40785000  0.23560000  1.0
  H  H3  1  0.40599000  0.40784000  0.76440000  1.0
  H  H4  1  0.87097000  0.52276000  0.33371000  1.0
  H  H5  1  0.37096000  0.52275000  0.66630000  1.0
  H  H6  1  0.24808000  0.81305000  0.50870000  1.0
  H  H7  1  0.74808000  0.81305000  0.49132000  1.0
  H  H8  1  0.41330000  0.12838000  0.49667000  1.0
  H  H9  1  0.91331000  0.12837000  0.50334000  1.0
  H  H10  1  0.63762000  0.24514000  0.33570000  1.0
  H  H11  1  0.13762000  0.24512000  0.66432000  1.0
  H  H12  1  0.74063000  0.67969000  0.93988000  1.0
  H  H13  1  0.24063000  0.67965000  0.06010000  1.0
  H  H14  1  0.55944000  0.37111000  0.98167000  1.0
  H  H15  1  0.05946000  0.37108000  0.01830000  1.0
  H  H16  1  0.35769000  0.29854000  0.15715000  1.0
  H  H17  1  0.85769000  0.29853000  0.84284000  1.0
  C  C18  1  0.34742000  0.87211000  0.43958000  1.0
  C  C19  1  0.84742000  0.87213000  0.56043000  1.0
  C  C20  1  0.44034000  0.04515000  0.43304000  1.0
  C  C21  1  0.94035000  0.04515000  0.56697000  1.0
  C  C22  1  0.56585000  0.11021000  0.34250000  1.0
  C  C23  1  0.06585000  0.11021000  0.65751000  1.0
  C  C24  1  0.59637000  0.00165000  0.26040000  1.0
  C  C25  1  0.09638000  0.00164000  0.73960000  1.0
  C  C26  1  0.49644000  0.82871000  0.27296000  1.0
  C  C27  1  0.99646000  0.82870000  0.72703000  1.0
  C  C28  1  0.52200000  0.70800000  0.19024000  1.0
  C  C29  1  0.02198000  0.70798000  0.80976000  1.0
  C  C30  1  0.64315000  0.76142000  0.09428000  1.0
  C  C31  1  0.14317000  0.76138000  0.90571000  1.0
  C  C32  1  0.65469000  0.63926000  0.01679000  1.0
  C  C33  1  0.15470000  0.63921000  0.98320000  1.0
  C  C34  1  0.55537000  0.47088000  0.03912000  1.0
  C  C35  1  0.05537000  0.47084000  0.96086000  1.0
  C  C36  1  0.44020000  0.42883000  0.13706000  1.0
  C  C37  1  0.94021000  0.42880000  0.86293000  1.0
  C  C38  1  0.72895000  0.06783000  0.16281000  1.0
  C  C39  1  0.22895000  0.06781000  0.83719000  1.0
  C  C40  1  0.75125000  0.94264000  0.07319000  1.0
  C  C41  1  0.25124000  0.94261000  0.92682000  1.0
  C  C42  1  0.09270000  0.11110000  0.30037000  1.0
  C  C43  1  0.59270000  0.11109000  0.69963000  1.0
  S  S44  1  0.01066000  0.91973000  0.25581000  1.0
  S  S45  1  0.51067000  0.91973000  0.74420000  1.0
  N  N46  1  0.37608000  0.76671000  0.36132000  1.0
  N  N47  1  0.87608000  0.76671000  0.63868000  1.0
  N  N48  1  0.42146000  0.54495000  0.20969000  1.0
  N  N49  1  0.92147000  0.54493000  0.79030000  1.0
  N  N50  1  0.15046000  0.25119000  0.33377000  1.0
  N  N51  1  0.65044000  0.25119000  0.66623000  1.0
  Cl  Cl52  1  0.12570000  0.49981000  0.55125000  1.0
  Cl  Cl53  1  0.62569000  0.49982000  0.44875000  1.0
  O  O54  1  0.81359000  0.22000000  0.14892000  1.0
  O  O55  1  0.31358000  0.21998000  0.85109000  1.0
  O  O56  1  0.84613000  0.99281000  0.98587000  1.0
  O  O57  1  0.34611000  0.99277000  0.01414000  1.0
  O  O58  1  0.97007000  0.51387000  0.27718000  1.0
  O  O59  1  0.47006000  0.51386000  0.72283000  1.0
