# generated using pymatgen
data_Zn2H16C23I2(N3O2)2
_symmetry_space_group_name_H-M   'P 1'
_cell_length_a   7.44863000
_cell_length_b   9.98669000
_cell_length_c   36.81160000
_cell_angle_alpha   96.35450000
_cell_angle_beta   90.00000000
_cell_angle_gamma   89.99970000
_symmetry_Int_Tables_number   1
_chemical_formula_structural   Zn2H16C23I2(N3O2)2
_chemical_formula_sum   'Zn8 H64 C92 I8 N24 O16'
_cell_volume   2721.48649890
_cell_formula_units_Z   4
loop_
 _symmetry_equiv_pos_site_id
 _symmetry_equiv_pos_as_xyz
  1  'x, y, z'
loop_
 _atom_site_type_symbol
 _atom_site_label
 _atom_site_symmetry_multiplicity
 _atom_site_fract_x
 _atom_site_fract_y
 _atom_site_fract_z
 _atom_site_occupancy
  Zn  Zn0  1  0.45215000  0.17275000  0.02621000  1.0
  Zn  Zn1  1  0.95215000  0.82725000  0.47379000  1.0
  Zn  Zn2  1  0.54785000  0.82725000  0.97379000  1.0
  Zn  Zn3  1  0.04785000  0.17275000  0.52621000  1.0
  Zn  Zn4  1  0.67683000  0.72932000  0.33231000  1.0
  Zn  Zn5  1  0.17683000  0.27068000  0.16769000  1.0
  Zn  Zn6  1  0.32317000  0.27068000  0.66769000  1.0
  Zn  Zn7  1  0.82316000  0.72932000  0.83231000  1.0
  H  H8  1  0.80981000  0.72120000  0.08764000  1.0
  H  H9  1  0.30981000  0.27880000  0.41236000  1.0
  H  H10  1  0.19019000  0.27880000  0.91236000  1.0
  H  H11  1  0.69019000  0.72120000  0.58764000  1.0
  H  H12  1  0.69003000  0.89583000  0.19753000  1.0
  H  H13  1  0.19003000  0.10417000  0.30247000  1.0
  H  H14  1  0.30998000  0.10417000  0.80247000  1.0
  H  H15  1  0.80997000  0.89583000  0.69753000  1.0
  H  H16  1  0.57313000  0.47557000  0.16462000  1.0
  H  H17  1  0.07312000  0.52442000  0.33538000  1.0
  H  H18  1  0.42687000  0.52442000  0.83538000  1.0
  H  H19  1  0.92687000  0.47558000  0.66462000  1.0
  H  H20  1  0.94320000  0.51494000  0.06989000  1.0
  H  H21  1  0.44320000  0.48506000  0.43011000  1.0
  H  H22  1  0.05680000  0.48507000  0.93011000  1.0
  H  H23  1  0.55680000  0.51494000  0.56989000  1.0
  H  H24  1  0.83867000  0.28968000  0.02382000  1.0
  H  H25  1  0.33866000  0.71032000  0.47618000  1.0
  H  H26  1  0.16133000  0.71034000  0.97618000  1.0
  H  H27  1  0.66133000  0.28968000  0.52382000  1.0
  H  H28  1  0.43601000  0.37890000  0.10401000  1.0
  H  H29  1  0.93600000  0.62110000  0.39599000  1.0
  H  H30  1  0.56400000  0.62110000  0.89599000  1.0
  H  H31  1  0.06400000  0.37890000  0.60401000  1.0
  H  H32  1  0.31396000  0.56663000  0.21250000  1.0
  H  H33  1  0.81395000  0.43336000  0.28750000  1.0
  H  H34  1  0.68605000  0.43336000  0.78750000  1.0
  H  H35  1  0.18604000  0.56663000  0.71250000  1.0
  H  H36  1  0.33124000  0.57889000  0.28838000  1.0
  H  H37  1  0.83124000  0.42110000  0.21163000  1.0
  H  H38  1  0.66876000  0.42110000  0.71162000  1.0
  H  H39  1  0.16875000  0.57889000  0.78838000  1.0
  H  H40  1  0.79411000  0.76518000  0.25123000  1.0
  H  H41  1  0.29412000  0.23482000  0.24877000  1.0
  H  H42  1  0.20589000  0.23482000  0.74877000  1.0
  H  H43  1  0.70588000  0.76519000  0.75123000  1.0
  H  H44  1  0.77206000  0.95503000  0.07830000  1.0
  H  H45  1  0.27207000  0.04496000  0.42170000  1.0
  H  H46  1  0.22794000  0.04496000  0.92170000  1.0
  H  H47  1  0.72794000  0.95504000  0.57830000  1.0
  H  H48  1  0.97678000  0.18868000  0.08952000  1.0
  H  H49  1  0.47679000  0.81131000  0.41047000  1.0
  H  H50  1  0.02321000  0.81131000  0.91047000  1.0
  H  H51  1  0.52321000  0.18869000  0.58953000  1.0
  H  H52  1  0.97527000  0.00077000  0.18672000  1.0
  H  H53  1  0.47526000  0.99923000  0.31328000  1.0
  H  H54  1  0.02473000  0.99924000  0.81328000  1.0
  H  H55  1  0.52474000  0.00077000  0.68672000  1.0
  H  H56  1  0.72333000  0.51885000  0.43048000  1.0
  H  H57  1  0.22333000  0.48115000  0.06952000  1.0
  H  H58  1  0.27667000  0.48116000  0.56952000  1.0
  H  H59  1  0.77667000  0.51885000  0.93048000  1.0
  H  H60  1  0.80337000  0.35200000  0.47271000  1.0
  H  H61  1  0.30338000  0.64799000  0.02729000  1.0
  H  H62  1  0.19662000  0.64800000  0.52729000  1.0
  H  H63  1  0.69663000  0.35200000  0.97272000  1.0
  H  H64  1  0.81730000  0.03871000  0.38240000  1.0
  H  H65  1  0.31729000  0.96129000  0.11760000  1.0
  H  H66  1  0.18271000  0.96129000  0.61760000  1.0
  H  H67  1  0.68271000  0.03871000  0.88240000  1.0
  H  H68  1  0.72427000  0.20675000  0.34002000  1.0
  H  H69  1  0.22426000  0.79325000  0.15998000  1.0
  H  H70  1  0.27574000  0.79325000  0.65998000  1.0
  H  H71  1  0.77573000  0.20675000  0.84002000  1.0
  C  C72  1  0.68705000  0.58911000  0.12325000  1.0
  C  C73  1  0.18705000  0.41089000  0.37675000  1.0
  C  C74  1  0.31295000  0.41089000  0.87675000  1.0
  C  C75  1  0.81295000  0.58911000  0.62325000  1.0
  C  C76  1  0.75934000  0.71121000  0.11501000  1.0
  C  C77  1  0.25933000  0.28880000  0.38499000  1.0
  C  C78  1  0.24066000  0.28879000  0.88499000  1.0
  C  C79  1  0.74067000  0.71121000  0.61501000  1.0
  C  C80  1  0.76518000  0.81962000  0.14228000  1.0
  C  C81  1  0.26518000  0.18038000  0.35772000  1.0
  C  C82  1  0.23482000  0.18038000  0.85772000  1.0
  C  C83  1  0.73482000  0.81963000  0.64228000  1.0
  C  C84  1  0.69596000  0.80838000  0.17708000  1.0
  C  C85  1  0.19596000  0.19162000  0.32292000  1.0
  C  C86  1  0.30404000  0.19162000  0.82292000  1.0
  C  C87  1  0.80404000  0.80838000  0.67708000  1.0
  C  C88  1  0.62709000  0.68434000  0.18461000  1.0
  C  C89  1  0.12709000  0.31566000  0.31539000  1.0
  C  C90  1  0.37291000  0.31566000  0.81539000  1.0
  C  C91  1  0.87291000  0.68434000  0.68461000  1.0
  C  C92  1  0.62098000  0.57348000  0.15803000  1.0
  C  C93  1  0.12098000  0.42652000  0.34197000  1.0
  C  C94  1  0.37902000  0.42652000  0.84197000  1.0
  C  C95  1  0.87902000  0.57348000  0.65803000  1.0
  C  C96  1  0.82378000  0.45350000  0.06956000  1.0
  C  C97  1  0.32378000  0.54650000  0.43044000  1.0
  C  C98  1  0.17622000  0.54651000  0.93044000  1.0
  C  C99  1  0.67622000  0.45350000  0.56956000  1.0
  C  C100  1  0.77023000  0.34302000  0.04704000  1.0
  C  C101  1  0.27023000  0.65698000  0.45296000  1.0
  C  C102  1  0.22977000  0.65699000  0.95296000  1.0
  C  C103  1  0.72977000  0.34302000  0.54704000  1.0
  C  C104  1  0.55928000  0.38280000  0.08833000  1.0
  C  C105  1  0.05927000  0.61720000  0.41167000  1.0
  C  C106  1  0.44073000  0.61720000  0.91167000  1.0
  C  C107  1  0.94073000  0.38280000  0.58833000  1.0
  C  C108  1  0.41653000  0.60567000  0.23185000  1.0
  C  C109  1  0.91653000  0.39433000  0.26815000  1.0
  C  C110  1  0.58347000  0.39433000  0.76815000  1.0
  C  C111  1  0.08346000  0.60567000  0.73185000  1.0
  C  C112  1  0.42469000  0.61546000  0.26924000  1.0
  C  C113  1  0.92469000  0.38454000  0.23076000  1.0
  C  C114  1  0.57531000  0.38454000  0.73076000  1.0
  C  C115  1  0.07531000  0.61546000  0.76924000  1.0
  C  C116  1  0.66419000  0.71603000  0.25140000  1.0
  C  C117  1  0.16419000  0.28397000  0.24860000  1.0
  C  C118  1  0.33581000  0.28397000  0.74860000  1.0
  C  C119  1  0.83581000  0.71603000  0.75140000  1.0
  C  C120  1  0.84461000  0.99968000  0.10213000  1.0
  C  C121  1  0.34461000  0.00031000  0.39787000  1.0
  C  C122  1  0.15539000  0.00032000  0.89787000  1.0
  C  C123  1  0.65539000  0.99969000  0.60213000  1.0
  C  C124  1  0.94586000  0.11459000  0.10799000  1.0
  C  C125  1  0.44587000  0.88540000  0.39200000  1.0
  C  C126  1  0.05413000  0.88540000  0.89200000  1.0
  C  C127  1  0.55414000  0.11460000  0.60800000  1.0
  C  C128  1  0.94655000  0.02336000  0.15919000  1.0
  C  C129  1  0.44655000  0.97664000  0.34081000  1.0
  C  C130  1  0.05345000  0.97664000  0.84080000  1.0
  C  C131  1  0.55346000  0.02336000  0.65919000  1.0
  C  C132  1  0.71457000  0.37213000  0.38257000  1.0
  C  C133  1  0.21456000  0.62787000  0.11743000  1.0
  C  C134  1  0.28543000  0.62788000  0.61743000  1.0
  C  C135  1  0.78543000  0.37213000  0.88257000  1.0
  C  C136  1  0.74044000  0.41332000  0.41990000  1.0
  C  C137  1  0.24044000  0.58668000  0.08010000  1.0
  C  C138  1  0.25956000  0.58668000  0.58010000  1.0
  C  C139  1  0.75956000  0.41332000  0.91990000  1.0
  C  C140  1  0.78584000  0.31985000  0.44370000  1.0
  C  C141  1  0.28584000  0.68015000  0.05630000  1.0
  C  C142  1  0.21416000  0.68015000  0.55630000  1.0
  C  C143  1  0.71416000  0.31985000  0.94370000  1.0
  C  C144  1  0.81062000  0.18433000  0.43024000  1.0
  C  C145  1  0.31061000  0.81567000  0.06976000  1.0
  C  C146  1  0.18938000  0.81567000  0.56976000  1.0
  C  C147  1  0.68939000  0.18433000  0.93025000  1.0
  C  C148  1  0.79202000  0.14357000  0.39269000  1.0
  C  C149  1  0.29201000  0.85643000  0.10731000  1.0
  C  C150  1  0.20798000  0.85643000  0.60731000  1.0
  C  C151  1  0.70799000  0.14357000  0.89269000  1.0
  C  C152  1  0.74168000  0.23656000  0.36920000  1.0
  C  C153  1  0.24168000  0.76344000  0.13080000  1.0
  C  C154  1  0.25832000  0.76344000  0.63080000  1.0
  C  C155  1  0.75832000  0.23656000  0.86920000  1.0
  C  C156  1  0.66236000  0.47015000  0.35628000  1.0
  C  C157  1  0.16236000  0.52985000  0.14372000  1.0
  C  C158  1  0.33764000  0.52985000  0.64372000  1.0
  C  C159  1  0.83764000  0.47015000  0.85628000  1.0
  C  C160  1  0.85755000  0.08330000  0.45558000  1.0
  C  C161  1  0.35754000  0.91670000  0.04442000  1.0
  C  C162  1  0.14245000  0.91670000  0.54442000  1.0
  C  C163  1  0.64245000  0.08330000  0.95558000  1.0
  I  I164  1  0.19586000  0.27342000  0.99298000  1.0
  I  I165  1  0.69586000  0.72658000  0.50701000  1.0
  I  I166  1  0.80414000  0.72658000  0.00701000  1.0
  I  I167  1  0.30413000  0.27342000  0.49298000  1.0
  I  I168  1  0.00056000  0.81576000  0.32248000  1.0
  I  I169  1  0.50056000  0.18424000  0.17751000  1.0
  I  I170  1  0.99944000  0.18425000  0.67751000  1.0
  I  I171  1  0.49944000  0.81576000  0.82248000  1.0
  N  N172  1  0.60475000  0.30134000  0.05877000  1.0
  N  N173  1  0.10475000  0.69866000  0.44124000  1.0
  N  N174  1  0.39525000  0.69866000  0.94123000  1.0
  N  N175  1  0.89525000  0.30135000  0.55877000  1.0
  N  N176  1  0.68983000  0.47803000  0.09571000  1.0
  N  N177  1  0.18983000  0.52197000  0.40429000  1.0
  N  N178  1  0.31017000  0.52198000  0.90429000  1.0
  N  N179  1  0.81017000  0.47803000  0.59571000  1.0
  N  N180  1  0.57941000  0.68385000  0.28100000  1.0
  N  N181  1  0.07941000  0.31615000  0.21900000  1.0
  N  N182  1  0.42059000  0.31615000  0.71900000  1.0
  N  N183  1  0.92058000  0.68385000  0.78100000  1.0
  N  N184  1  0.56938000  0.67050000  0.22087000  1.0
  N  N185  1  0.06938000  0.32949000  0.27913000  1.0
  N  N186  1  0.43062000  0.32949000  0.77913000  1.0
  N  N187  1  0.93062000  0.67051000  0.72087000  1.0
  N  N188  1  0.00907000  0.12765000  0.14360000  1.0
  N  N189  1  0.50907000  0.87235000  0.35640000  1.0
  N  N190  1  0.99093000  0.87235000  0.85640000  1.0
  N  N191  1  0.49093000  0.12765000  0.64360000  1.0
  N  N192  1  0.84570000  0.94261000  0.13487000  1.0
  N  N193  1  0.34570000  0.05739000  0.36514000  1.0
  N  N194  1  0.15430000  0.05739000  0.86513000  1.0
  N  N195  1  0.65430000  0.94261000  0.63486000  1.0
  O  O196  1  0.68921000  0.59694000  0.36811000  1.0
  O  O197  1  0.18921000  0.40306000  0.13189000  1.0
  O  O198  1  0.31079000  0.40306000  0.63189000  1.0
  O  O199  1  0.81079000  0.59694000  0.86811000  1.0
  O  O200  1  0.60236000  0.42864000  0.32544000  1.0
  O  O201  1  0.10235000  0.57136000  0.17456000  1.0
  O  O202  1  0.39764000  0.57136000  0.67456000  1.0
  O  O203  1  0.89764000  0.42863000  0.82544000  1.0
  O  O204  1  0.85243000  0.11698000  0.48998000  1.0
  O  O205  1  0.35242000  0.88302000  0.01002000  1.0
  O  O206  1  0.14757000  0.88302000  0.51002000  1.0
  O  O207  1  0.64758000  0.11698000  0.98998000  1.0
  O  O208  1  0.89920000  0.96532000  0.44094000  1.0
  O  O209  1  0.39920000  0.03468000  0.05906000  1.0
  O  O210  1  0.10080000  0.03468000  0.55906000  1.0
  O  O211  1  0.60080000  0.96532000  0.94094000  1.0
