# generated using pymatgen
data_Al2H9C12NO12
_symmetry_space_group_name_H-M   'P 1'
_cell_length_a   6.67619000
_cell_length_b   13.38320000
_cell_length_c   17.04930000
_cell_angle_alpha   89.47220000
_cell_angle_beta   89.82040000
_cell_angle_gamma   89.68460000
_symmetry_Int_Tables_number   1
_chemical_formula_structural   Al2H9C12NO12
_chemical_formula_sum   'Al4 H18 C24 N2 O24'
_cell_volume   1523.23930051
_cell_formula_units_Z   2
loop_
 _symmetry_equiv_pos_site_id
 _symmetry_equiv_pos_as_xyz
  1  'x, y, z'
loop_
 _atom_site_type_symbol
 _atom_site_label
 _atom_site_symmetry_multiplicity
 _atom_site_fract_x
 _atom_site_fract_y
 _atom_site_fract_z
 _atom_site_occupancy
  Al  Al0  1  0.88931000  0.50649000  0.50284000  1.0
  Al  Al1  1  0.39190000  0.50230000  0.50172000  1.0
  Al  Al2  1  0.38446000  0.00059000  0.99609000  1.0
  Al  Al3  1  0.88273000  0.99845000  0.99521000  1.0
  H  H4  1  0.96700000  0.20540000  0.18813000  1.0
  H  H5  1  0.42453000  0.29485000  0.30925000  1.0
  H  H6  1  0.29254000  0.28383000  0.68821000  1.0
  H  H7  1  0.83071000  0.18806000  0.80018000  1.0
  H  H8  1  0.93718000  0.80936000  0.19199000  1.0
  H  H9  1  0.47729000  0.79148000  0.19166000  1.0
  H  H10  1  0.93923000  0.69652000  0.30613000  1.0
  H  H11  1  0.47847000  0.71079000  0.30619000  1.0
  H  H12  1  0.93451000  0.79547000  0.81282000  1.0
  H  H13  1  0.47843000  0.81631000  0.78957000  1.0
  H  H14  1  0.93541000  0.70110000  0.68820000  1.0
  H  H15  1  0.47744000  0.68669000  0.70862000  1.0
  H  H16  1  0.83470000  0.31436000  0.69311000  1.0
  H  H17  1  0.28764000  0.21757000  0.80922000  1.0
  H  H18  1  0.64771000  0.37546000  0.47835000  1.0
  H  H19  1  0.14452000  0.62727000  0.47103000  1.0
  H  H20  1  0.63681000  0.12305000  0.02865000  1.0
  H  H21  1  0.13700000  0.87582000  0.02656000  1.0
  C  C22  1  0.64076000  0.62471000  0.39403000  1.0
  C  C23  1  0.63414000  0.61506000  0.61241000  1.0
  C  C24  1  0.13725000  0.38197000  0.60609000  1.0
  C  C25  1  0.14158000  0.39033000  0.39091000  1.0
  C  C26  1  0.27595000  0.21782000  0.21460000  1.0
  C  C27  1  0.11950000  0.18430000  0.17256000  1.0
  C  C28  1  0.27826000  0.28204000  0.28247000  1.0
  C  C29  1  0.12441000  0.32859000  0.31840000  1.0
  C  C30  1  0.97821000  0.28444000  0.71360000  1.0
  C  C31  1  0.14372000  0.31194000  0.67324000  1.0
  C  C32  1  0.97555000  0.21738000  0.78100000  1.0
  C  C33  1  0.13827000  0.18953000  0.82282000  1.0
  C  C34  1  0.79221000  0.78399000  0.21422000  1.0
  C  C35  1  0.62795000  0.81380000  0.17417000  1.0
  C  C36  1  0.79327000  0.72077000  0.28388000  1.0
  C  C37  1  0.62989000  0.68976000  0.32393000  1.0
  C  C38  1  0.79084000  0.78092000  0.78460000  1.0
  C  C39  1  0.62639000  0.82467000  0.81560000  1.0
  C  C40  1  0.79105000  0.71772000  0.71578000  1.0
  C  C41  1  0.62663000  0.67670000  0.68352000  1.0
  C  C42  1  0.63087000  0.88745000  0.88626000  1.0
  C  C43  1  0.63725000  0.87907000  0.10394000  1.0
  C  C44  1  0.13251000  0.11704000  0.10412000  1.0
  C  C45  1  0.12905000  0.11964000  0.89017000  1.0
  N  N46  1  0.48438000  0.18596000  0.19356000  1.0
  N  N47  1  0.91552000  0.32369000  0.29090000  1.0
  O  O48  1  0.46524000  0.58486000  0.58715000  1.0
  O  O49  1  0.81249000  0.59816000  0.41980000  1.0
  O  O50  1  0.97436000  0.41307000  0.42170000  1.0
  O  O51  1  0.80401000  0.59699000  0.58092000  1.0
  O  O52  1  0.96786000  0.41551000  0.58348000  1.0
  O  O53  1  0.47159000  0.60022000  0.42407000  1.0
  O  O54  1  0.64255000  0.44287000  0.49845000  1.0
  O  O55  1  0.30631000  0.40336000  0.57489000  1.0
  O  O56  1  0.31563000  0.41267000  0.41389000  1.0
  O  O57  1  0.14172000  0.56406000  0.49926000  1.0
  O  O58  1  0.80860000  0.90802000  0.07973000  1.0
  O  O59  1  0.46056000  0.91899000  0.90999000  1.0
  O  O60  1  0.29699000  0.09908000  0.92232000  1.0
  O  O61  1  0.46817000  0.90069000  0.07268000  1.0
  O  O62  1  0.30478000  0.08675000  0.08238000  1.0
  O  O63  1  0.79880000  0.90504000  0.91850000  1.0
  O  O64  1  0.63364000  0.06108000  0.99948000  1.0
  O  O65  1  0.96503000  0.09607000  0.07308000  1.0
  O  O66  1  0.95929000  0.08584000  0.91152000  1.0
  O  O67  1  0.13499000  0.93879000  0.99802000  1.0
  O  O68  1  0.57593000  0.23970000  0.14652000  1.0
  O  O69  1  0.55167000  0.11249000  0.22882000  1.0
  O  O70  1  0.80933000  0.25642000  0.31862000  1.0
  O  O71  1  0.86141000  0.38902000  0.24388000  1.0
