# generated using pymatgen
data_ZnH17C21N2O5
_symmetry_space_group_name_H-M   'P 1'
_cell_length_a   9.60913000
_cell_length_b   9.75937000
_cell_length_c   11.21640000
_cell_angle_alpha   91.22830000
_cell_angle_beta   106.64400000
_cell_angle_gamma   109.04600000
_symmetry_Int_Tables_number   1
_chemical_formula_structural   ZnH17C21N2O5
_chemical_formula_sum   'Zn2 H34 C42 N4 O10'
_cell_volume   944.92526818
_cell_formula_units_Z   2
loop_
 _symmetry_equiv_pos_site_id
 _symmetry_equiv_pos_as_xyz
  1  'x, y, z'
loop_
 _atom_site_type_symbol
 _atom_site_label
 _atom_site_symmetry_multiplicity
 _atom_site_fract_x
 _atom_site_fract_y
 _atom_site_fract_z
 _atom_site_occupancy
  Zn  Zn0  1  0.04249000  0.97717000  0.88188000  1.0
  Zn  Zn1  1  0.95751000  0.02283000  0.11812000  1.0
  H  H2  1  0.22834000  0.62885000  0.98413000  1.0
  H  H3  1  0.77167000  0.37115000  0.01587000  1.0
  H  H4  1  0.36366000  0.46844000  0.09415000  1.0
  H  H5  1  0.63634000  0.53156000  0.90585000  1.0
  H  H6  1  0.19531000  0.50881000  0.40532000  1.0
  H  H7  1  0.80468000  0.49118000  0.59468000  1.0
  H  H8  1  0.06625000  0.67665000  0.29530000  1.0
  H  H9  1  0.93375000  0.32335000  0.70470000  1.0
  H  H10  1  0.67778000  0.52204000  0.42065000  1.0
  H  H11  1  0.32222000  0.47796000  0.57935000  1.0
  H  H12  1  0.88679000  0.46554000  0.36007000  1.0
  H  H13  1  0.11321000  0.53446000  0.63993000  1.0
  H  H14  1  0.81612000  0.26731000  0.18684000  1.0
  H  H15  1  0.18388000  0.73269000  0.81317000  1.0
  H  H16  1  0.53805000  0.12832000  0.07396000  1.0
  H  H17  1  0.46195000  0.87168000  0.92604000  1.0
  H  H18  1  0.32943000  0.19182000  0.84631000  1.0
  H  H19  1  0.67057000  0.80818000  0.15368000  1.0
  H  H20  1  0.34941000  0.26075000  0.70335000  1.0
  H  H21  1  0.65059000  0.73925000  0.29665000  1.0
  H  H22  1  0.45705000  0.15174000  0.77530000  1.0
  H  H23  1  0.54295000  0.84827000  0.22469000  1.0
  H  H24  1  0.88985000  0.76801000  0.62924000  1.0
  H  H25  1  0.11015000  0.23199000  0.37076000  1.0
  H  H26  1  0.02529000  0.79344000  0.43806000  1.0
  H  H27  1  0.97471000  0.20656000  0.56194000  1.0
  H  H28  1  0.35033000  0.14615000  0.51046000  1.0
  H  H29  1  0.64967000  0.85385000  0.48953000  1.0
  H  H30  1  0.24238000  0.99117000  0.39819000  1.0
  H  H31  1  0.75762000  0.00883000  0.60181000  1.0
  H  H32  1  0.39908000  0.84928000  0.52131000  1.0
  H  H33  1  0.60092000  0.15072000  0.47869000  1.0
  H  H34  1  0.50356000  0.00112000  0.63793000  1.0
  H  H35  1  0.49644000  0.99888000  0.36207000  1.0
  C  C36  1  0.07323000  0.77423000  0.07426000  1.0
  C  C37  1  0.92677000  0.22577000  0.92574000  1.0
  C  C38  1  0.14105000  0.66421000  0.13419000  1.0
  C  C39  1  0.85895000  0.33579000  0.86581000  1.0
  C  C40  1  0.22210000  0.60265000  0.07659000  1.0
  C  C41  1  0.77790000  0.39735000  0.92341000  1.0
  C  C42  1  0.29724000  0.51228000  0.13852000  1.0
  C  C43  1  0.70276000  0.48772000  0.86148000  1.0
  C  C44  1  0.28907000  0.47842000  0.25793000  1.0
  C  C45  1  0.71093000  0.52158000  0.74207000  1.0
  C  C46  1  0.20224000  0.53565000  0.31309000  1.0
  C  C47  1  0.79776000  0.46435000  0.68691000  1.0
  C  C48  1  0.13046000  0.62840000  0.25238000  1.0
  C  C49  1  0.86954000  0.37161000  0.74762000  1.0
  C  C50  1  0.37566000  0.39010000  0.33075000  1.0
  C  C51  1  0.62434000  0.60990000  0.66925000  1.0
  C  C52  1  0.49341000  0.35404000  0.28465000  1.0
  C  C53  1  0.50659000  0.64596000  0.71535000  1.0
  C  C54  1  0.64961000  0.43507000  0.34573000  1.0
  C  C55  1  0.35039000  0.56493000  0.65427000  1.0
  C  C56  1  0.76520000  0.40353000  0.31114000  1.0
  C  C57  1  0.23480000  0.59647000  0.68886000  1.0
  C  C58  1  0.72624000  0.29246000  0.21409000  1.0
  C  C59  1  0.27376000  0.70754000  0.78591000  1.0
  C  C60  1  0.57084000  0.21425000  0.15090000  1.0
  C  C61  1  0.42916000  0.78575000  0.84910000  1.0
  C  C62  1  0.45360000  0.24372000  0.18579000  1.0
  C  C63  1  0.54640000  0.75628000  0.81421000  1.0
  C  C64  1  0.28715000  0.15583000  0.11993000  1.0
  C  C65  1  0.71285000  0.84417000  0.88007000  1.0
  C  C66  1  0.34453000  0.16667000  0.75630000  1.0
  C  C67  1  0.65547000  0.83333000  0.24370000  1.0
  C  C68  1  0.21487000  0.03374000  0.68531000  1.0
  C  C69  1  0.78513000  0.96626000  0.31469000  1.0
  C  C70  1  0.99816000  0.84470000  0.62444000  1.0
  C  C71  1  0.00184000  0.15530000  0.37556000  1.0
  C  C72  1  0.06371000  0.85521000  0.52995000  1.0
  C  C73  1  0.93629000  0.14479000  0.47005000  1.0
  C  C74  1  0.30824000  0.02617000  0.49804000  1.0
  C  C75  1  0.69177000  0.97383000  0.50196000  1.0
  C  C76  1  0.44316000  0.96959000  0.53663000  1.0
  C  C77  1  0.55684000  0.03041000  0.46337000  1.0
  N  N78  1  0.09286000  0.95597000  0.72061000  1.0
  N  N79  1  0.90714000  0.04403000  0.27939000  1.0
  N  N80  1  0.19955000  0.97419000  0.56925000  1.0
  N  N81  1  0.80045000  0.02581000  0.43075000  1.0
  O  O82  1  0.07905000  0.79749000  0.96446000  1.0
  O  O83  1  0.92095000  0.20251000  0.03554000  1.0
  O  O84  1  0.01915000  0.83783000  0.14085000  1.0
  O  O85  1  0.98085000  0.16217000  0.85915000  1.0
  O  O86  1  0.36523000  0.35913000  0.43508000  1.0
  O  O87  1  0.63477000  0.64086000  0.56492000  1.0
  O  O88  1  0.19245000  0.14719000  0.18138000  1.0
  O  O89  1  0.80755000  0.85281000  0.81862000  1.0
  O  O90  1  0.25474000  0.09683000  0.00871000  1.0
  O  O91  1  0.74526000  0.90318000  0.99129000  1.0
