# generated using pymatgen
data_ZnH18C34N2(OF3)4
_symmetry_space_group_name_H-M   'P 1'
_cell_length_a   6.53903000
_cell_length_b   10.84670000
_cell_length_c   12.00220000
_cell_angle_alpha   106.32000000
_cell_angle_beta   93.53150000
_cell_angle_gamma   92.00070000
_symmetry_Int_Tables_number   1
_chemical_formula_structural   ZnH18C34N2(OF3)4
_chemical_formula_sum   'Zn1 H18 C34 N2 O4 F12'
_cell_volume   814.21442135
_cell_formula_units_Z   1
loop_
 _symmetry_equiv_pos_site_id
 _symmetry_equiv_pos_as_xyz
  1  'x, y, z'
loop_
 _atom_site_type_symbol
 _atom_site_label
 _atom_site_symmetry_multiplicity
 _atom_site_fract_x
 _atom_site_fract_y
 _atom_site_fract_z
 _atom_site_occupancy
  Zn  Zn0  1  0.50000000  0.00000000  0.50000000  1.0
  H  H1  1  0.41231000  0.33684000  0.36091000  1.0
  H  H2  1  0.58768000  0.66316000  0.63909000  1.0
  H  H3  1  0.06792000  0.10342000  0.54756000  1.0
  H  H4  1  0.93208000  0.89658000  0.45244000  1.0
  H  H5  1  0.61943000  0.15104000  0.74853000  1.0
  H  H6  1  0.38057000  0.84896000  0.25147000  1.0
  H  H7  1  0.48222000  0.31892000  0.91012000  1.0
  H  H8  1  0.51778000  0.68108000  0.08988000  1.0
  H  H9  1  0.90660000  0.26454000  0.70071000  1.0
  H  H10  1  0.09340000  0.73546000  0.29929000  1.0
  H  H11  1  0.96318000  0.16111000  0.89997000  1.0
  H  H12  1  0.03682000  0.83889000  0.10003000  1.0
  H  H13  1  0.71113000  0.09588000  0.01891000  1.0
  H  H14  1  0.28887000  0.90412000  0.98109000  1.0
  H  H15  1  0.54679000  0.26132000  0.17071000  1.0
  H  H16  1  0.45322000  0.73868000  0.82930000  1.0
  H  H17  1  0.63931000  0.49151000  0.20510000  1.0
  H  H18  1  0.36070000  0.50849000  0.79490000  1.0
  C  C19  1  0.12891000  0.15617000  0.25470000  1.0
  C  C20  1  0.87109000  0.84382000  0.74530000  1.0
  C  C21  1  0.29415000  0.14743000  0.34982000  1.0
  C  C22  1  0.70585000  0.85256000  0.65018000  1.0
  C  C23  1  0.43817000  0.25201000  0.38958000  1.0
  C  C24  1  0.56183000  0.74799000  0.61042000  1.0
  C  C25  1  0.61533000  0.25358000  0.46222000  1.0
  C  C26  1  0.38467000  0.74641000  0.53778000  1.0
  C  C27  1  0.75384000  0.37880000  0.49867000  1.0
  C  C28  1  0.24616000  0.62120000  0.50133000  1.0
  C  C29  1  0.15499000  0.15193000  0.62939000  1.0
  C  C30  1  0.84502000  0.84807000  0.37061000  1.0
  C  C31  1  0.46268000  0.18039000  0.74137000  1.0
  C  C32  1  0.53731000  0.81961000  0.25864000  1.0
  C  C33  1  0.38518000  0.27350000  0.83110000  1.0
  C  C34  1  0.61482000  0.72650000  0.16890000  1.0
  C  C35  1  0.18147000  0.30674000  0.81908000  1.0
  C  C36  1  0.81854000  0.69326000  0.18092000  1.0
  C  C37  1  0.06533000  0.24283000  0.71575000  1.0
  C  C38  1  0.93467000  0.75717000  0.28425000  1.0
  C  C39  1  0.09065000  0.40564000  0.91221000  1.0
  C  C40  1  0.90935000  0.59437000  0.08779000  1.0
  C  C41  1  0.85178000  0.46288000  0.06852000  1.0
  C  C42  1  0.14822000  0.53712000  0.93148000  1.0
  C  C43  1  0.94483000  0.36688000  0.97946000  1.0
  C  C44  1  0.05517000  0.63312000  0.02054000  1.0
  C  C45  1  0.88978000  0.23423000  0.96454000  1.0
  C  C46  1  0.11023000  0.76578000  0.03546000  1.0
  C  C47  1  0.74904000  0.19768000  0.03110000  1.0
  C  C48  1  0.25097000  0.80232000  0.96890000  1.0
  C  C49  1  0.65613000  0.29180000  0.11752000  1.0
  C  C50  1  0.34387000  0.70820000  0.88248000  1.0
  C  C51  1  0.70724000  0.42030000  0.13631000  1.0
  C  C52  1  0.29276000  0.57970000  0.86369000  1.0
  N  N53  1  0.35090000  0.12088000  0.64124000  1.0
  N  N54  1  0.64910000  0.87912000  0.35876000  1.0
  O  O55  1  0.68083000  0.16721000  0.50495000  1.0
  O  O56  1  0.31917000  0.83279000  0.49505000  1.0
  O  O57  1  0.28362000  0.04285000  0.37654000  1.0
  O  O58  1  0.71637000  0.95715000  0.62346000  1.0
  F  F59  1  0.10404000  0.27791000  0.24894000  1.0
  F  F60  1  0.89596000  0.72209000  0.75106000  1.0
  F  F61  1  0.94327000  0.10517000  0.26939000  1.0
  F  F62  1  0.05674000  0.89482000  0.73060000  1.0
  F  F63  1  0.18669000  0.08607000  0.14807000  1.0
  F  F64  1  0.81332000  0.91393000  0.85193000  1.0
  F  F65  1  0.73258000  0.44196000  0.61342000  1.0
  F  F66  1  0.26741000  0.55803000  0.38658000  1.0
  F  F67  1  0.95454000  0.35274000  0.48893000  1.0
  F  F68  1  0.04545000  0.64726000  0.51107000  1.0
  F  F69  1  0.70930000  0.46207000  0.43566000  1.0
  F  F70  1  0.29070000  0.53793000  0.56434000  1.0
