# generated using pymatgen
data_CdH8C6N2O7
_symmetry_space_group_name_H-M   'P 1'
_cell_length_a   8.02815000
_cell_length_b   11.41919962
_cell_length_c   12.27710000
_cell_angle_alpha   69.79602747
_cell_angle_beta   89.99500000
_cell_angle_gamma   69.45782108
_symmetry_Int_Tables_number   1
_chemical_formula_structural   CdH8C6N2O7
_chemical_formula_sum   'Cd4 H32 C24 N8 O28'
_cell_volume   979.65176900
_cell_formula_units_Z   4
loop_
 _symmetry_equiv_pos_site_id
 _symmetry_equiv_pos_as_xyz
  1  'x, y, z'
loop_
 _atom_site_type_symbol
 _atom_site_label
 _atom_site_symmetry_multiplicity
 _atom_site_fract_x
 _atom_site_fract_y
 _atom_site_fract_z
 _atom_site_occupancy
  Cd  Cd0  1  0.76468000  0.67365000  0.27499000  1.0
  Cd  Cd1  1  0.43840000  0.32627000  0.22506000  1.0
  Cd  Cd2  1  0.23532000  0.32635000  0.72501000  1.0
  Cd  Cd3  1  0.56160000  0.67373000  0.77494000  1.0
  H  H4  1  0.55396000  0.96660000  0.12859000  1.0
  H  H5  1  0.52004000  0.03324000  0.37157000  1.0
  H  H6  1  0.44604000  0.03340000  0.87141000  1.0
  H  H7  1  0.47996000  0.96676000  0.62844000  1.0
  H  H8  1  0.35849000  0.66470000  0.28147000  1.0
  H  H9  1  0.02327000  0.33522000  0.21892000  1.0
  H  H10  1  0.64151000  0.33530000  0.71853000  1.0
  H  H11  1  0.97673000  0.66478000  0.78108000  1.0
  H  H12  1  0.98180000  0.06227000  0.08191000  1.0
  H  H13  1  0.04337000  0.93760000  0.41822000  1.0
  H  H14  1  0.01820000  0.93772000  0.91809000  1.0
  H  H15  1  0.95663000  0.06240000  0.58178000  1.0
  H  H16  1  0.24123000  0.13756000  0.04009000  1.0
  H  H17  1  0.37790000  0.86231000  0.45997000  1.0
  H  H18  1  0.75877000  0.86244000  0.95992000  1.0
  H  H19  1  0.62209000  0.13769000  0.54003000  1.0
  H  H20  1  0.90155000  0.57570000  0.09415000  1.0
  H  H21  1  0.47708000  0.42424000  0.40580000  1.0
  H  H22  1  0.09845000  0.42430000  0.90584000  1.0
  H  H23  1  0.52291000  0.57577000  0.59420000  1.0
  H  H24  1  0.69124000  0.66377000  0.04814000  1.0
  H  H25  1  0.35478000  0.33606000  0.45181000  1.0
  H  H26  1  0.30876000  0.33623000  0.95186000  1.0
  H  H27  1  0.64522000  0.66394000  0.54819000  1.0
  H  H28  1  0.77410000  0.83350000  0.41052000  1.0
  H  H29  1  0.60760000  0.16657000  0.08952000  1.0
  H  H30  1  0.22590000  0.16650000  0.58948000  1.0
  H  H31  1  0.39240000  0.83343000  0.91048000  1.0
  H  H32  1  0.88882000  0.68285000  0.49340000  1.0
  H  H33  1  0.57156000  0.31722000  0.00657000  1.0
  H  H34  1  0.11118000  0.31715000  0.50660000  1.0
  H  H35  1  0.42844000  0.68278000  0.99343000  1.0
  C  C36  1  0.99955000  0.80919000  0.20970000  1.0
  C  C37  1  0.80849000  0.19078000  0.29062000  1.0
  C  C38  1  0.00046000  0.19080000  0.79031000  1.0
  C  C39  1  0.19150000  0.80923000  0.70938000  1.0
  C  C40  1  0.15175000  0.85776000  0.18375000  1.0
  C  C41  1  0.00919000  0.14219000  0.31663000  1.0
  C  C42  1  0.84825000  0.14224000  0.81625000  1.0
  C  C43  1  0.99081000  0.85781000  0.68337000  1.0
  C  C44  1  0.43529000  0.94062000  0.14166000  1.0
  C  C45  1  0.37541000  0.05932000  0.35856000  1.0
  C  C46  1  0.56471000  0.05938000  0.85834000  1.0
  C  C47  1  0.62458000  0.94068000  0.64144000  1.0
  C  C48  1  0.32930000  0.76972000  0.22824000  1.0
  C  C49  1  0.09892000  0.23022000  0.27212000  1.0
  C  C50  1  0.67071000  0.23027000  0.77176000  1.0
  C  C51  1  0.90108000  0.76978000  0.72788000  1.0
  C  C52  1  0.11908000  0.99199000  0.11596000  1.0
  C  C53  1  0.11046000  0.00793000  0.38430000  1.0
  C  C54  1  0.88092000  0.00801000  0.88404000  1.0
  C  C55  1  0.88954000  0.99207000  0.61570000  1.0
  C  C56  1  0.26306000  0.03381000  0.09355000  1.0
  C  C57  1  0.29619000  0.96611000  0.40667000  1.0
  C  C58  1  0.73695000  0.96618000  0.90645000  1.0
  C  C59  1  0.70381000  0.03389000  0.59333000  1.0
  N  N60  1  0.78990000  0.40955000  0.44347000  1.0
  N  N61  1  0.19958000  0.59033000  0.05646000  1.0
  N  N62  1  0.21009000  0.59046000  0.55652000  1.0
  N  N63  1  0.80042000  0.40967000  0.94354000  1.0
  N  N64  1  0.46809000  0.81069000  0.20822000  1.0
  N  N65  1  0.27859000  0.18925000  0.29203000  1.0
  N  N66  1  0.53191000  0.18931000  0.79178000  1.0
  N  N67  1  0.72141000  0.81075000  0.70797000  1.0
  O  O68  1  0.83947000  0.89422000  0.18172000  1.0
  O  O69  1  0.73326000  0.10579000  0.31863000  1.0
  O  O70  1  0.16052000  0.10578000  0.81829000  1.0
  O  O71  1  0.26674000  0.89421000  0.68137000  1.0
  O  O72  1  0.04158000  0.68193000  0.25991000  1.0
  O  O73  1  0.72352000  0.31804000  0.24026000  1.0
  O  O74  1  0.95844000  0.31806000  0.74009000  1.0
  O  O75  1  0.27648000  0.68196000  0.75974000  1.0
  O  O76  1  0.63597000  0.50338000  0.39929000  1.0
  O  O77  1  0.13936000  0.49648000  0.10055000  1.0
  O  O78  1  0.36402000  0.49663000  0.60071000  1.0
  O  O79  1  0.86064000  0.50352000  0.89945000  1.0
  O  O80  1  0.92855000  0.44006000  0.41652000  1.0
  O  O81  1  0.36867000  0.55983000  0.08356000  1.0
  O  O82  1  0.07145000  0.55994000  0.58348000  1.0
  O  O83  1  0.63133000  0.44017000  0.91644000  1.0
  O  O84  1  0.78086000  0.60526000  0.11812000  1.0
  O  O85  1  0.38581000  0.39477000  0.38183000  1.0
  O  O86  1  0.21914000  0.39474000  0.88188000  1.0
  O  O87  1  0.61419000  0.60523000  0.61816000  1.0
  O  O88  1  0.76955000  0.74374000  0.44375000  1.0
  O  O89  1  0.51326000  0.25624000  0.05631000  1.0
  O  O90  1  0.23045000  0.25626000  0.55625000  1.0
  O  O91  1  0.48674000  0.74376000  0.94369000  1.0
  O  O92  1  0.80583000  0.29505000  0.50887000  1.0
  O  O93  1  0.10128000  0.70482000  0.99102000  1.0
  O  O94  1  0.19417000  0.70495000  0.49112000  1.0
  O  O95  1  0.89871000  0.29518000  0.00898000  1.0
