# generated using pymatgen
data_HgH6C7NClO5
_symmetry_space_group_name_H-M   'P 1'
_cell_length_a   7.70739000
_cell_length_b   9.94827000
_cell_length_c   12.44030000
_cell_angle_alpha   90.00000000
_cell_angle_beta   93.10020000
_cell_angle_gamma   89.99990000
_symmetry_Int_Tables_number   1
_chemical_formula_structural   HgH6C7NClO5
_chemical_formula_sum   'Hg4 H24 C28 N4 Cl4 O20'
_cell_volume   952.46645440
_cell_formula_units_Z   4
loop_
 _symmetry_equiv_pos_site_id
 _symmetry_equiv_pos_as_xyz
  1  'x, y, z'
loop_
 _atom_site_type_symbol
 _atom_site_label
 _atom_site_symmetry_multiplicity
 _atom_site_fract_x
 _atom_site_fract_y
 _atom_site_fract_z
 _atom_site_occupancy
  Hg  Hg0  1  0.19961000  0.58019000  0.43802000  1.0
  Hg  Hg1  1  0.30039000  0.08020000  0.06197000  1.0
  Hg  Hg2  1  0.80039000  0.41980000  0.56197000  1.0
  Hg  Hg3  1  0.69961000  0.91981000  0.93802000  1.0
  H  H4  1  0.25771000  0.65231000  0.67058000  1.0
  H  H5  1  0.24229000  0.15231000  0.82942000  1.0
  H  H6  1  0.74229000  0.34769000  0.32942000  1.0
  H  H7  1  0.75771000  0.84769000  0.17058000  1.0
  H  H8  1  0.39472000  0.54462000  0.63474000  1.0
  H  H9  1  0.10528000  0.04462000  0.86525000  1.0
  H  H10  1  0.60528000  0.45538000  0.36525000  1.0
  H  H11  1  0.89472000  0.95538000  0.13474000  1.0
  H  H12  1  0.70992000  0.15074000  0.22348000  1.0
  H  H13  1  0.79008000  0.65074000  0.27652000  1.0
  H  H14  1  0.29008000  0.84925000  0.77652000  1.0
  H  H15  1  0.20992000  0.34926000  0.72348000  1.0
  H  H16  1  0.30757000  0.16695000  0.33922000  1.0
  H  H17  1  0.19244000  0.66695000  0.16078000  1.0
  H  H18  1  0.69244000  0.83305000  0.66078000  1.0
  H  H19  1  0.80757000  0.33305000  0.83922000  1.0
  H  H20  1  0.00779000  0.07939000  0.37362000  1.0
  H  H21  1  0.49221000  0.57939000  0.12638000  1.0
  H  H22  1  0.99221000  0.92061000  0.62638000  1.0
  H  H23  1  0.50779000  0.42061000  0.87362000  1.0
  H  H24  1  0.97100000  0.83451000  0.40421000  1.0
  H  H25  1  0.52900000  0.33451000  0.09579000  1.0
  H  H26  1  0.02899000  0.16550000  0.59579000  1.0
  H  H27  1  0.47101000  0.66549000  0.90421000  1.0
  C  C28  1  0.38973000  0.83179000  0.35626000  1.0
  C  C29  1  0.11027000  0.33179000  0.14374000  1.0
  C  C30  1  0.61027000  0.16821000  0.64374000  1.0
  C  C31  1  0.88973000  0.66821000  0.85626000  1.0
  C  C32  1  0.42144000  0.96887000  0.34144000  1.0
  C  C33  1  0.07856000  0.46887000  0.15857000  1.0
  C  C34  1  0.57856000  0.03113000  0.65857000  1.0
  C  C35  1  0.92144000  0.53113000  0.84144000  1.0
  C  C36  1  0.28387000  0.05974000  0.34870000  1.0
  C  C37  1  0.21613000  0.55974000  0.15130000  1.0
  C  C38  1  0.71613000  0.94026000  0.65130000  1.0
  C  C39  1  0.78388000  0.44026000  0.84870000  1.0
  C  C40  1  0.11932000  0.01296000  0.36912000  1.0
  C  C41  1  0.38067000  0.51296000  0.13088000  1.0
  C  C42  1  0.88067000  0.98704000  0.63088000  1.0
  C  C43  1  0.61933000  0.48704000  0.86912000  1.0
  C  C44  1  0.09684000  0.87617000  0.38605000  1.0
  C  C45  1  0.40316000  0.37618000  0.11394000  1.0
  C  C46  1  0.90316000  0.12382000  0.61394000  1.0
  C  C47  1  0.59684000  0.62383000  0.88605000  1.0
  C  C48  1  0.52486000  0.72433000  0.33831000  1.0
  C  C49  1  0.97514000  0.22434000  0.16169000  1.0
  C  C50  1  0.47514000  0.27566000  0.66169000  1.0
  C  C51  1  0.02486000  0.77567000  0.83831000  1.0
  C  C52  1  0.59730000  0.02822000  0.32437000  1.0
  C  C53  1  0.90270000  0.52822000  0.17563000  1.0
  C  C54  1  0.40270000  0.97178000  0.67563000  1.0
  C  C55  1  0.09730000  0.47178000  0.82437000  1.0
  N  N56  1  0.22991000  0.78982000  0.38098000  1.0
  N  N57  1  0.27009000  0.28982000  0.11902000  1.0
  N  N58  1  0.77009000  0.21018000  0.61902000  1.0
  N  N59  1  0.72991000  0.71018000  0.88098000  1.0
  Cl  Cl60  1  0.12614000  0.34920000  0.45096000  1.0
  Cl  Cl61  1  0.37386000  0.84920000  0.04904000  1.0
  Cl  Cl62  1  0.87386000  0.65080000  0.54904000  1.0
  Cl  Cl63  1  0.62614000  0.15080000  0.95096000  1.0
  O  O64  1  0.34420000  0.63442000  0.61718000  1.0
  O  O65  1  0.15580000  0.13442000  0.88282000  1.0
  O  O66  1  0.65580000  0.36558000  0.38282000  1.0
  O  O67  1  0.84420000  0.86558000  0.11718000  1.0
  O  O68  1  0.49512000  0.60605000  0.36998000  1.0
  O  O69  1  0.00487000  0.10605000  0.13001000  1.0
  O  O70  1  0.50487000  0.39395000  0.63001000  1.0
  O  O71  1  0.99513000  0.89395000  0.86999000  1.0
  O  O72  1  0.65735000  0.75994000  0.28896000  1.0
  O  O73  1  0.84265000  0.25994000  0.21104000  1.0
  O  O74  1  0.34265000  0.24006000  0.71104000  1.0
  O  O75  1  0.15735000  0.74006000  0.78896000  1.0
  O  O76  1  0.71460000  0.02910000  0.39494000  1.0
  O  O77  1  0.78541000  0.52911000  0.10507000  1.0
  O  O78  1  0.28541000  0.97090000  0.60507000  1.0
  O  O79  1  0.21460000  0.47090000  0.89494000  1.0
  O  O80  1  0.60089000  0.08873000  0.22921000  1.0
  O  O81  1  0.89911000  0.58874000  0.27079000  1.0
  O  O82  1  0.39911000  0.91126000  0.77080000  1.0
  O  O83  1  0.10089000  0.41127000  0.72921000  1.0
