# generated using pymatgen
data_CdH19C15SN3O7
_symmetry_space_group_name_H-M   'P 1'
_cell_length_a   4.93925000
_cell_length_b   10.55310000
_cell_length_c   17.50370000
_cell_angle_alpha   86.53060000
_cell_angle_beta   89.99960000
_cell_angle_gamma   89.99980000
_symmetry_Int_Tables_number   1
_chemical_formula_structural   CdH19C15SN3O7
_chemical_formula_sum   'Cd2 H38 C30 S2 N6 O14'
_cell_volume   910.69770938
_cell_formula_units_Z   2
loop_
 _symmetry_equiv_pos_site_id
 _symmetry_equiv_pos_as_xyz
  1  'x, y, z'
loop_
 _atom_site_type_symbol
 _atom_site_label
 _atom_site_symmetry_multiplicity
 _atom_site_fract_x
 _atom_site_fract_y
 _atom_site_fract_z
 _atom_site_occupancy
  Cd  Cd0  1  0.73059000  0.78156000  0.63778000  1.0
  Cd  Cd1  1  0.23059000  0.21844000  0.36223000  1.0
  H  H2  1  0.70839000  0.60540000  0.81450000  1.0
  H  H3  1  0.20839000  0.39461000  0.18549000  1.0
  H  H4  1  0.65753000  0.80407000  0.88137000  1.0
  H  H5  1  0.15749000  0.19593000  0.11862000  1.0
  H  H6  1  0.95462000  0.65051000  0.99960000  1.0
  H  H7  1  0.45458000  0.34951000  0.00039000  1.0
  H  H8  1  0.00330000  0.45065000  0.93319000  1.0
  H  H9  1  0.50333000  0.54935000  0.06681000  1.0
  H  H10  1  0.06837000  0.88398000  0.99792000  1.0
  H  H11  1  0.56834000  0.11602000  0.00209000  1.0
  H  H12  1  0.39201000  0.93707000  0.96366000  1.0
  H  H13  1  0.89199000  0.06295000  0.03634000  1.0
  H  H14  1  0.36563000  0.83801000  0.04878000  1.0
  H  H15  1  0.86557000  0.16200000  0.95122000  1.0
  H  H16  1  0.56029000  0.49861000  0.69697000  1.0
  H  H17  1  0.06027000  0.50138000  0.30303000  1.0
  H  H18  1  0.10744000  0.41451000  0.59182000  1.0
  H  H19  1  0.60745000  0.58547000  0.40818000  1.0
  H  H20  1  0.37903000  0.51418000  0.56276000  1.0
  H  H21  1  0.87903000  0.48582000  0.43723000  1.0
  H  H22  1  0.46324000  0.24366000  0.63433000  1.0
  H  H23  1  0.96326000  0.75633000  0.36567000  1.0
  H  H24  1  0.71196000  0.34354000  0.59134000  1.0
  H  H25  1  0.21197000  0.65644000  0.40867000  1.0
  H  H26  1  0.18909000  0.82812000  0.77845000  1.0
  H  H27  1  0.68908000  0.17189000  0.22154000  1.0
  H  H28  1  0.20313000  0.05217000  0.85647000  1.0
  H  H29  1  0.70315000  0.94783000  0.14352000  1.0
  H  H30  1  0.54142000  0.06241000  0.70244000  1.0
  H  H31  1  0.04143000  0.93760000  0.29756000  1.0
  H  H32  1  0.03553000  0.39324000  0.74939000  1.0
  H  H33  1  0.53555000  0.60677000  0.25061000  1.0
  H  H34  1  0.80433000  0.18242000  0.80216000  1.0
  H  H35  1  0.30434000  0.81758000  0.19784000  1.0
  H  H36  1  0.29331000  0.90489000  0.56035000  1.0
  H  H37  1  0.79331000  0.09510000  0.43965000  1.0
  H  H38  1  0.49892000  0.02098000  0.55457000  1.0
  H  H39  1  0.99892000  0.97900000  0.44544000  1.0
  C  C40  1  0.54321000  0.61532000  0.85503000  1.0
  C  C41  1  0.04320000  0.38468000  0.14497000  1.0
  C  C42  1  0.51344000  0.72683000  0.89317000  1.0
  C  C43  1  0.01344000  0.27318000  0.10683000  1.0
  C  C44  1  0.30543000  0.74021000  0.94655000  1.0
  C  C45  1  0.80541000  0.25979000  0.05344000  1.0
  C  C46  1  0.12098000  0.64013000  0.95962000  1.0
  C  C47  1  0.62096000  0.35987000  0.04038000  1.0
  C  C48  1  0.14604000  0.52827000  0.92222000  1.0
  C  C49  1  0.64605000  0.47174000  0.07777000  1.0
  C  C50  1  0.36007000  0.51606000  0.87077000  1.0
  C  C51  1  0.86007000  0.48395000  0.12923000  1.0
  C  C52  1  0.28103000  0.85666000  0.99108000  1.0
  C  C53  1  0.78100000  0.14335000  0.00892000  1.0
  C  C54  1  0.34610000  0.48109000  0.68468000  1.0
  C  C55  1  0.84610000  0.51890000  0.31532000  1.0
  C  C56  1  0.18542000  0.60510000  0.68670000  1.0
  C  C57  1  0.68542000  0.39490000  0.31331000  1.0
  C  C58  1  0.32126000  0.43518000  0.60321000  1.0
  C  C59  1  0.82127000  0.56482000  0.39679000  1.0
  C  C60  1  0.49493000  0.31949000  0.58938000  1.0
  C  C61  1  0.99495000  0.68050000  0.41063000  1.0
  C  C62  1  0.44254000  0.26431000  0.51248000  1.0
  C  C63  1  0.94254000  0.73568000  0.48753000  1.0
  C  C64  1  0.05511000  0.90932000  0.77565000  1.0
  C  C65  1  0.55510000  0.09068000  0.22433000  1.0
  C  C66  1  0.06443000  0.01844000  0.81453000  1.0
  C  C67  1  0.56440000  0.98156000  0.18546000  1.0
  C  C68  1  0.71964000  0.02885000  0.73352000  1.0
  C  C69  1  0.21966000  0.97115000  0.26648000  1.0
  S  S70  1  0.39180000  0.37117000  0.82549000  1.0
  S  S71  1  0.89182000  0.62882000  0.17451000  1.0
  N  N72  1  0.24150000  0.38423000  0.74174000  1.0
  N  N73  1  0.74151000  0.61576000  0.25826000  1.0
  N  N74  1  0.83964000  0.91728000  0.72537000  1.0
  N  N75  1  0.33964000  0.08273000  0.27462000  1.0
  N  N76  1  0.85117000  0.09245000  0.78707000  1.0
  N  N77  1  0.35118000  0.90754000  0.21294000  1.0
  O  O78  1  0.29684000  0.70870000  0.66341000  1.0
  O  O79  1  0.79683000  0.29130000  0.33660000  1.0
  O  O80  1  0.93843000  0.59705000  0.70695000  1.0
  O  O81  1  0.43842000  0.40295000  0.29305000  1.0
  O  O82  1  0.29654000  0.32963000  0.46452000  1.0
  O  O83  1  0.79654000  0.67035000  0.53548000  1.0
  O  O84  1  0.54364000  0.15699000  0.49884000  1.0
  O  O85  1  0.04362000  0.84300000  0.50117000  1.0
  O  O86  1  0.67849000  0.35114000  0.81032000  1.0
  O  O87  1  0.17851000  0.64886000  0.18968000  1.0
  O  O88  1  0.24753000  0.27449000  0.87132000  1.0
  O  O89  1  0.74757000  0.72553000  0.12868000  1.0
  O  O90  1  0.44275000  0.94534000  0.58757000  1.0
  O  O91  1  0.94276000  0.05465000  0.41243000  1.0
