# generated using pymatgen
data_ZnH8C12(SN)4
_symmetry_space_group_name_H-M   'P 1'
_cell_length_a   8.94728000
_cell_length_b   8.94737000
_cell_length_c   11.16320000
_cell_angle_alpha   81.29370000
_cell_angle_beta   81.29380000
_cell_angle_gamma   64.11520000
_symmetry_Int_Tables_number   1
_chemical_formula_structural   ZnH8C12(SN)4
_chemical_formula_sum   'Zn2 H16 C24 S8 N8'
_cell_volume   791.08008943
_cell_formula_units_Z   2
loop_
 _symmetry_equiv_pos_site_id
 _symmetry_equiv_pos_as_xyz
  1  'x, y, z'
loop_
 _atom_site_type_symbol
 _atom_site_label
 _atom_site_symmetry_multiplicity
 _atom_site_fract_x
 _atom_site_fract_y
 _atom_site_fract_z
 _atom_site_occupancy
  Zn  Zn0  1  0.05730000  0.94269000  0.75001000  1.0
  Zn  Zn1  1  0.94270000  0.05730000  0.24999000  1.0
  H  H2  1  0.22389000  0.97248000  0.94225000  1.0
  H  H3  1  0.02751000  0.77610000  0.55776000  1.0
  H  H4  1  0.77611000  0.02752000  0.05776000  1.0
  H  H5  1  0.97248000  0.22389000  0.44224000  1.0
  H  H6  1  0.38212000  0.79767000  0.11553000  1.0
  H  H7  1  0.20232000  0.61788000  0.38447000  1.0
  H  H8  1  0.61788000  0.20233000  0.88447000  1.0
  H  H9  1  0.79768000  0.38213000  0.61554000  1.0
  H  H10  1  0.23802000  0.41325000  0.05351000  1.0
  H  H11  1  0.58676000  0.76200000  0.44650000  1.0
  H  H12  1  0.76199000  0.58676000  0.94648000  1.0
  H  H13  1  0.41325000  0.23800000  0.55350000  1.0
  H  H14  1  0.09055000  0.60324000  0.87906000  1.0
  H  H15  1  0.39675000  0.90946000  0.62095000  1.0
  H  H16  1  0.90946000  0.39676000  0.12093000  1.0
  H  H17  1  0.60324000  0.09054000  0.37905000  1.0
  C  C18  1  0.23126000  0.84736000  0.96975000  1.0
  C  C19  1  0.15264000  0.76874000  0.53025000  1.0
  C  C20  1  0.76874000  0.15265000  0.03025000  1.0
  C  C21  1  0.84735000  0.23126000  0.46976000  1.0
  C  C22  1  0.31757000  0.74997000  0.06712000  1.0
  C  C23  1  0.25002000  0.68244000  0.43289000  1.0
  C  C24  1  0.68243000  0.25003000  0.93287000  1.0
  C  C25  1  0.74997000  0.31756000  0.56711000  1.0
  C  C26  1  0.32198000  0.59101000  0.09915000  1.0
  C  C27  1  0.40900000  0.67803000  0.40086000  1.0
  C  C28  1  0.67803000  0.40900000  0.90086000  1.0
  C  C29  1  0.59101000  0.32197000  0.59914000  1.0
  C  C30  1  0.23762000  0.53640000  0.03179000  1.0
  C  C31  1  0.46359000  0.76238000  0.46821000  1.0
  C  C32  1  0.76237000  0.46359000  0.96820000  1.0
  C  C33  1  0.53640000  0.23762000  0.53178000  1.0
  C  C34  1  0.15507000  0.64193000  0.93513000  1.0
  C  C35  1  0.35807000  0.84493000  0.56488000  1.0
  C  C36  1  0.84494000  0.35807000  0.06487000  1.0
  C  C37  1  0.64193000  0.15507000  0.43512000  1.0
  C  C38  1  0.06100000  0.28520000  0.73185000  1.0
  C  C39  1  0.71478000  0.93899000  0.76816000  1.0
  C  C40  1  0.93899000  0.71480000  0.26815000  1.0
  C  C41  1  0.28522000  0.06101000  0.23185000  1.0
  S  S42  1  0.42968000  0.45156000  0.21894000  1.0
  S  S43  1  0.54844000  0.57033000  0.28106000  1.0
  S  S44  1  0.57032000  0.54844000  0.78105000  1.0
  S  S45  1  0.45156000  0.42967000  0.71894000  1.0
  S  S46  1  0.04186000  0.47136000  0.68849000  1.0
  S  S47  1  0.52862000  0.95813000  0.81151000  1.0
  S  S48  1  0.95814000  0.52863000  0.31150000  1.0
  S  S49  1  0.47138000  0.04185000  0.18850000  1.0
  N  N50  1  0.15238000  0.79503000  0.90345000  1.0
  N  N51  1  0.20497000  0.84762000  0.59656000  1.0
  N  N52  1  0.84762000  0.20497000  0.09655000  1.0
  N  N53  1  0.79502000  0.15238000  0.40344000  1.0
  N  N54  1  0.07135000  0.14825000  0.76435000  1.0
  N  N55  1  0.85175000  0.92864000  0.73566000  1.0
  N  N56  1  0.92865000  0.85175000  0.23565000  1.0
  N  N57  1  0.14825000  0.07136000  0.26434000  1.0
