# generated using pymatgen
data_H6Pb2C8SO9
_symmetry_space_group_name_H-M   'P 1'
_cell_length_a   6.81744000
_cell_length_b   8.45761000
_cell_length_c   10.88420000
_cell_angle_alpha   89.91520000
_cell_angle_beta   72.71100000
_cell_angle_gamma   88.51360000
_symmetry_Int_Tables_number   1
_chemical_formula_structural   H6Pb2C8SO9
_chemical_formula_sum   'H12 Pb4 C16 S2 O18'
_cell_volume   599.00524438
_cell_formula_units_Z   2
loop_
 _symmetry_equiv_pos_site_id
 _symmetry_equiv_pos_as_xyz
  1  'x, y, z'
loop_
 _atom_site_type_symbol
 _atom_site_label
 _atom_site_symmetry_multiplicity
 _atom_site_fract_x
 _atom_site_fract_y
 _atom_site_fract_z
 _atom_site_occupancy
  H  H0  1  0.55840000  0.65882000  0.56840000  1.0
  H  H1  1  0.44159000  0.34117000  0.43159000  1.0
  H  H2  1  0.84987000  0.08594000  0.40188000  1.0
  H  H3  1  0.15016000  0.91404000  0.59811000  1.0
  H  H4  1  0.57693000  0.05746000  0.81223000  1.0
  H  H5  1  0.42306000  0.94254000  0.18777000  1.0
  H  H6  1  0.17282000  0.65518000  0.08795000  1.0
  H  H7  1  0.82717000  0.34483000  0.91206000  1.0
  H  H8  1  0.00026000  0.90488000  0.87574000  1.0
  H  H9  1  0.99974000  0.09514000  0.12426000  1.0
  H  H10  1  0.79178000  0.97851000  0.96390000  1.0
  H  H11  1  0.20822000  0.02151000  0.03609000  1.0
  Pb  Pb12  1  0.06418000  0.45303000  0.29429000  1.0
  Pb  Pb13  1  0.93580000  0.54697000  0.70572000  1.0
  Pb  Pb14  1  0.75030000  0.64364000  0.08535000  1.0
  Pb  Pb15  1  0.24969000  0.35636000  0.91465000  1.0
  C  C16  1  0.55446000  0.85090000  0.70196000  1.0
  C  C17  1  0.44553000  0.14910000  0.29804000  1.0
  C  C18  1  0.60572000  0.77850000  0.58083000  1.0
  C  C19  1  0.39428000  0.22150000  0.41916000  1.0
  C  C20  1  0.71632000  0.86317000  0.47250000  1.0
  C  C21  1  0.28369000  0.13682000  0.52749000  1.0
  C  C22  1  0.76876000  0.01942000  0.48666000  1.0
  C  C23  1  0.23125000  0.98057000  0.51333000  1.0
  C  C24  1  0.71772000  0.08978000  0.60874000  1.0
  C  C25  1  0.28229000  0.91022000  0.39126000  1.0
  C  C26  1  0.61304000  0.00400000  0.71712000  1.0
  C  C27  1  0.38696000  0.99599000  0.28288000  1.0
  C  C28  1  0.77338000  0.78708000  0.34164000  1.0
  C  C29  1  0.22662000  0.21292000  0.65836000  1.0
  C  C30  1  0.77222000  0.25571000  0.62803000  1.0
  C  C31  1  0.22779000  0.74428000  0.37197000  1.0
  S  S32  1  0.40753000  0.74801000  0.83975000  1.0
  S  S33  1  0.59246000  0.25199000  0.16025000  1.0
  O  O34  1  0.83161000  0.87131000  0.24214000  1.0
  O  O35  1  0.16838000  0.12868000  0.75787000  1.0
  O  O36  1  0.75463000  0.63512000  0.33747000  1.0
  O  O37  1  0.24537000  0.36488000  0.66253000  1.0
  O  O38  1  0.87766000  0.33531000  0.53333000  1.0
  O  O39  1  0.12237000  0.66468000  0.46668000  1.0
  O  O40  1  0.71402000  0.31191000  0.74282000  1.0
  O  O41  1  0.28597000  0.68809000  0.25719000  1.0
  O  O42  1  0.35144000  0.85832000  0.94909000  1.0
  O  O43  1  0.64855000  0.14170000  0.05090000  1.0
  O  O44  1  0.22999000  0.68798000  0.80488000  1.0
  O  O45  1  0.77001000  0.31201000  0.19513000  1.0
  O  O46  1  0.54172000  0.61581000  0.86047000  1.0
  O  O47  1  0.45829000  0.38421000  0.13953000  1.0
  O  O48  1  0.08797000  0.56358000  0.08699000  1.0
  O  O49  1  0.91201000  0.43642000  0.91302000  1.0
  O  O50  1  0.85848000  0.87937000  0.92182000  1.0
  O  O51  1  0.14152000  0.12065000  0.07818000  1.0
