# generated using pymatgen
data_YH7C11N3O7
_symmetry_space_group_name_H-M   'P 1'
_cell_length_a   8.20564000
_cell_length_b   11.54110000
_cell_length_c   14.71190000
_cell_angle_alpha   89.99990000
_cell_angle_beta   89.99970000
_cell_angle_gamma   91.95990000
_symmetry_Int_Tables_number   1
_chemical_formula_structural   YH7C11N3O7
_chemical_formula_sum   'Y4 H28 C44 N12 O28'
_cell_volume   1392.43295915
_cell_formula_units_Z   4
loop_
 _symmetry_equiv_pos_site_id
 _symmetry_equiv_pos_as_xyz
  1  'x, y, z'
loop_
 _atom_site_type_symbol
 _atom_site_label
 _atom_site_symmetry_multiplicity
 _atom_site_fract_x
 _atom_site_fract_y
 _atom_site_fract_z
 _atom_site_occupancy
  Y  Y0  1  0.27525000  0.92647000  0.86861000  1.0
  Y  Y1  1  0.72475000  0.57353000  0.36861000  1.0
  Y  Y2  1  0.72475000  0.07352000  0.13139000  1.0
  Y  Y3  1  0.27525000  0.42647000  0.63139000  1.0
  H  H4  1  0.66536000  0.85027000  0.55557000  1.0
  H  H5  1  0.33465000  0.64973000  0.05557000  1.0
  H  H6  1  0.33465000  0.14973000  0.44443000  1.0
  H  H7  1  0.66535000  0.35027000  0.94443000  1.0
  H  H8  1  0.74934000  0.28114000  0.58107000  1.0
  H  H9  1  0.25066000  0.21886000  0.08107000  1.0
  H  H10  1  0.25065000  0.71886000  0.41893000  1.0
  H  H11  1  0.74935000  0.78114000  0.91893000  1.0
  H  H12  1  0.58258000  0.09914000  0.55897000  1.0
  H  H13  1  0.41743000  0.40087000  0.05898000  1.0
  H  H14  1  0.41743000  0.90086000  0.44103000  1.0
  H  H15  1  0.58257000  0.59913000  0.94103000  1.0
  H  H16  1  0.75175000  0.98466000  0.82113000  1.0
  H  H17  1  0.24825000  0.51534000  0.32113000  1.0
  H  H18  1  0.24825000  0.01534000  0.17887000  1.0
  H  H19  1  0.75175000  0.48466000  0.67887000  1.0
  H  H20  1  0.91357000  0.17239000  0.83267000  1.0
  H  H21  1  0.08643000  0.32762000  0.33267000  1.0
  H  H22  1  0.08643000  0.82762000  0.16733000  1.0
  H  H23  1  0.91357000  0.67238000  0.66733000  1.0
  H  H24  1  0.03972000  0.96286000  0.72528000  1.0
  H  H25  1  0.96028000  0.53714000  0.22528000  1.0
  H  H26  1  0.96028000  0.03713000  0.27472000  1.0
  H  H27  1  0.03971000  0.46286000  0.77472000  1.0
  H  H28  1  0.96856000  0.84101000  0.77285000  1.0
  H  H29  1  0.03144000  0.65899000  0.27285000  1.0
  H  H30  1  0.03145000  0.15898000  0.22715000  1.0
  H  H31  1  0.96855000  0.34102000  0.72715000  1.0
  C  C32  1  0.50334000  0.73807000  0.62614000  1.0
  C  C33  1  0.49666000  0.76194000  0.12614000  1.0
  C  C34  1  0.49666000  0.26193000  0.37386000  1.0
  C  C35  1  0.50334000  0.23807000  0.87386000  1.0
  C  C36  1  0.31023000  0.67998000  0.76398000  1.0
  C  C37  1  0.68977000  0.82002000  0.26398000  1.0
  C  C38  1  0.68977000  0.32001000  0.23601000  1.0
  C  C39  1  0.31024000  0.17998000  0.73601000  1.0
  C  C40  1  0.42468000  0.75461000  0.70868000  1.0
  C  C41  1  0.57532000  0.74539000  0.20868000  1.0
  C  C42  1  0.57533000  0.24539000  0.29132000  1.0
  C  C43  1  0.42468000  0.25461000  0.79132000  1.0
  C  C44  1  0.53823000  0.63815000  0.56669000  1.0
  C  C45  1  0.46178000  0.86186000  0.06670000  1.0
  C  C46  1  0.46178000  0.36186000  0.43330000  1.0
  C  C47  1  0.53823000  0.13814000  0.93331000  1.0
  C  C48  1  0.56503000  0.91488000  0.68005000  1.0
  C  C49  1  0.43497000  0.58512000  0.18005000  1.0
  C  C50  1  0.43498000  0.08512000  0.31995000  1.0
  C  C51  1  0.56502000  0.41488000  0.81995000  1.0
  C  C52  1  0.74630000  0.21394000  0.63325000  1.0
  C  C53  1  0.25370000  0.28606000  0.13325000  1.0
  C  C54  1  0.25370000  0.78606000  0.36675000  1.0
  C  C55  1  0.74630000  0.71394000  0.86675000  1.0
  C  C56  1  0.65506000  0.11109000  0.62049000  1.0
  C  C57  1  0.34494000  0.38891000  0.12050000  1.0
  C  C58  1  0.34494000  0.88891000  0.37951000  1.0
  C  C59  1  0.65506000  0.61108000  0.87951000  1.0
  C  C60  1  0.74859000  0.04842000  0.76686000  1.0
  C  C61  1  0.25141000  0.45158000  0.26686000  1.0
  C  C62  1  0.25141000  0.95158000  0.23314000  1.0
  C  C63  1  0.74859000  0.54842000  0.73314000  1.0
  C  C64  1  0.65450000  0.02652000  0.68884000  1.0
  C  C65  1  0.34550000  0.47348000  0.18885000  1.0
  C  C66  1  0.34550000  0.97348000  0.31116000  1.0
  C  C67  1  0.65449000  0.52652000  0.81116000  1.0
  C  C68  1  0.83685000  0.15308000  0.77353000  1.0
  C  C69  1  0.16315000  0.34692000  0.27353000  1.0
  C  C70  1  0.16315000  0.84692000  0.22647000  1.0
  C  C71  1  0.83685000  0.65308000  0.72647000  1.0
  C  C72  1  0.96470000  0.93675000  0.00049000  1.0
  C  C73  1  0.03528000  0.56325000  0.50047000  1.0
  C  C74  1  0.03529000  0.06325000  0.99953000  1.0
  C  C75  1  0.96470000  0.43675000  0.49951000  1.0
  N  N76  1  0.46494000  0.86428000  0.74098000  1.0
  N  N77  1  0.53505000  0.63572000  0.24098000  1.0
  N  N78  1  0.53506000  0.13572000  0.25902000  1.0
  N  N79  1  0.46494000  0.36428000  0.75903000  1.0
  N  N80  1  0.58680000  0.84139000  0.60905000  1.0
  N  N81  1  0.41320000  0.65861000  0.10905000  1.0
  N  N82  1  0.41320000  0.15861000  0.39095000  1.0
  N  N83  1  0.58680000  0.34139000  0.89095000  1.0
  N  N84  1  0.83493000  0.23494000  0.70860000  1.0
  N  N85  1  0.16507000  0.26506000  0.20860000  1.0
  N  N86  1  0.16507000  0.76506000  0.29140000  1.0
  N  N87  1  0.83493000  0.73494000  0.79140000  1.0
  O  O88  1  0.26170000  0.72533000  0.83747000  1.0
  O  O89  1  0.73830000  0.77467000  0.33747000  1.0
  O  O90  1  0.73831000  0.27467000  0.16253000  1.0
  O  O91  1  0.26170000  0.22533000  0.66253000  1.0
  O  O92  1  0.26800000  0.57902000  0.73734000  1.0
  O  O93  1  0.73200000  0.92098000  0.23734000  1.0
  O  O94  1  0.73199000  0.42098000  0.26266000  1.0
  O  O95  1  0.26801000  0.07901000  0.76266000  1.0
  O  O96  1  0.61802000  0.66529000  0.49530000  1.0
  O  O97  1  0.38199000  0.83470000  0.99530000  1.0
  O  O98  1  0.38198000  0.33470000  0.50470000  1.0
  O  O99  1  0.61802000  0.16529000  0.00469000  1.0
  O  O100  1  0.50069000  0.53671000  0.59327000  1.0
  O  O101  1  0.49929000  0.96328000  0.09327000  1.0
  O  O102  1  0.49930000  0.46328000  0.40672000  1.0
  O  O103  1  0.50070000  0.03671000  0.90672000  1.0
  O  O104  1  0.04065000  0.86299000  0.95508000  1.0
  O  O105  1  0.95937000  0.63700000  0.45508000  1.0
  O  O106  1  0.95938000  0.13700000  0.04492000  1.0
  O  O107  1  0.04064000  0.36299000  0.54492000  1.0
  O  O108  1  0.06802000  0.89470000  0.75986000  1.0
  O  O109  1  0.93198000  0.60530000  0.25986000  1.0
  O  O110  1  0.93199000  0.10530000  0.24013000  1.0
  O  O111  1  0.06801000  0.39470000  0.74014000  1.0
  O  O112  1  0.83588000  0.91839000  0.04686000  1.0
  O  O113  1  0.16414000  0.58161000  0.54687000  1.0
  O  O114  1  0.16415000  0.08161000  0.95314000  1.0
  O  O115  1  0.83587000  0.41839000  0.45314000  1.0
