# generated using pymatgen
data_CoH20C24(NO3)2
_symmetry_space_group_name_H-M   'P 1'
_cell_length_a   9.20039000
_cell_length_b   9.39057000
_cell_length_c   11.78440000
_cell_angle_alpha   81.86200000
_cell_angle_beta   87.86930000
_cell_angle_gamma   89.34120000
_symmetry_Int_Tables_number   1
_chemical_formula_structural   CoH20C24(NO3)2
_chemical_formula_sum   'Co2 H40 C48 N4 O12'
_cell_volume   1007.16622742
_cell_formula_units_Z   2
loop_
 _symmetry_equiv_pos_site_id
 _symmetry_equiv_pos_as_xyz
  1  'x, y, z'
loop_
 _atom_site_type_symbol
 _atom_site_label
 _atom_site_symmetry_multiplicity
 _atom_site_fract_x
 _atom_site_fract_y
 _atom_site_fract_z
 _atom_site_occupancy
  Co  Co0  1  0.00000000  0.50000000  0.50000000  1.0
  Co  Co1  1  0.50000000  0.50000000  0.00000000  1.0
  H  H2  1  0.30512000  0.51220000  0.39114000  1.0
  H  H3  1  0.78720000  0.50467000  0.09570000  1.0
  H  H4  1  0.69487000  0.48780000  0.60887000  1.0
  H  H5  1  0.21280000  0.49533000  0.90430000  1.0
  H  H6  1  0.53825000  0.63925000  0.40471000  1.0
  H  H7  1  0.01569000  0.36343000  0.08865000  1.0
  H  H8  1  0.46175000  0.36074000  0.59528000  1.0
  H  H9  1  0.98432000  0.63657000  0.91136000  1.0
  H  H10  1  0.96311000  0.50423000  0.28948000  1.0
  H  H11  1  0.46397000  0.49691000  0.21971000  1.0
  H  H12  1  0.03689000  0.49577000  0.71052000  1.0
  H  H13  1  0.53604000  0.50308000  0.78030000  1.0
  H  H14  1  0.13657000  0.44631000  0.28804000  1.0
  H  H15  1  0.63438000  0.54841000  0.22186000  1.0
  H  H16  1  0.86342000  0.55370000  0.71196000  1.0
  H  H17  1  0.36562000  0.45159000  0.77814000  1.0
  H  H18  1  0.20243000  0.08216000  0.54541000  1.0
  H  H19  1  0.69855000  0.91109000  0.96614000  1.0
  H  H20  1  0.79757000  0.91785000  0.45459000  1.0
  H  H21  1  0.30146000  0.08891000  0.03385000  1.0
  H  H22  1  0.09040000  0.75949000  0.60970000  1.0
  H  H23  1  0.58023000  0.24724000  0.89344000  1.0
  H  H24  1  0.90961000  0.24052000  0.39030000  1.0
  H  H25  1  0.41977000  0.75275000  0.10656000  1.0
  H  H26  1  0.43264000  0.78797000  0.79089000  1.0
  H  H27  1  0.92169000  0.21005000  0.70846000  1.0
  H  H28  1  0.56736000  0.21204000  0.20909000  1.0
  H  H29  1  0.07832000  0.78994000  0.29154000  1.0
  H  H30  1  0.32529000  0.21559000  0.86153000  1.0
  H  H31  1  0.82424000  0.78373000  0.64009000  1.0
  H  H32  1  0.67470000  0.78441000  0.13847000  1.0
  H  H33  1  0.17577000  0.21627000  0.35992000  1.0
  H  H34  1  0.44060000  0.97405000  0.91867000  1.0
  H  H35  1  0.93397000  0.02580000  0.57899000  1.0
  H  H36  1  0.55940000  0.02594000  0.08132000  1.0
  H  H37  1  0.06604000  0.97419000  0.42102000  1.0
  H  H38  1  0.54818000  0.82931000  0.53474000  1.0
  H  H39  1  0.03081000  0.16112000  0.96962000  1.0
  H  H40  1  0.45183000  0.17069000  0.46525000  1.0
  H  H41  1  0.96919000  0.83888000  0.03038000  1.0
  C  C42  1  0.31149000  0.59840000  0.44348000  1.0
  C  C43  1  0.79397000  0.41296000  0.04884000  1.0
  C  C44  1  0.68850000  0.40161000  0.55652000  1.0
  C  C45  1  0.20603000  0.58704000  0.95115000  1.0
  C  C46  1  0.44192000  0.66864000  0.45259000  1.0
  C  C47  1  0.92224000  0.33432000  0.04311000  1.0
  C  C48  1  0.55808000  0.33137000  0.54741000  1.0
  C  C49  1  0.07777000  0.66568000  0.95689000  1.0
  C  C50  1  0.25637000  0.16258000  0.70000000  1.0
  C  C51  1  0.75522000  0.83225000  0.80774000  1.0
  C  C52  1  0.74362000  0.83742000  0.30000000  1.0
  C  C53  1  0.24478000  0.16774000  0.19226000  1.0
  C  C54  1  0.25405000  0.05683000  0.62748000  1.0
  C  C55  1  0.74990000  0.93729000  0.88133000  1.0
  C  C56  1  0.74595000  0.94318000  0.37252000  1.0
  C  C57  1  0.25010000  0.06271000  0.11867000  1.0
  C  C58  1  0.18508000  0.30555000  0.66476000  1.0
  C  C59  1  0.68594000  0.68836000  0.84222000  1.0
  C  C60  1  0.81491000  0.69445000  0.33525000  1.0
  C  C61  1  0.31406000  0.31164000  0.15779000  1.0
  C  C62  1  0.31832000  0.92220000  0.65873000  1.0
  C  C63  1  0.80968000  0.07349000  0.84683000  1.0
  C  C64  1  0.68168000  0.07781000  0.34126000  1.0
  C  C65  1  0.19033000  0.92651000  0.15317000  1.0
  C  C66  1  0.19202000  0.73675000  0.56521000  1.0
  C  C67  1  0.67900000  0.26794000  0.93604000  1.0
  C  C68  1  0.80798000  0.26326000  0.43479000  1.0
  C  C69  1  0.32099000  0.73205000  0.06397000  1.0
  C  C70  1  0.31888000  0.81074000  0.58128000  1.0
  C  C71  1  0.80557000  0.18734000  0.92283000  1.0
  C  C72  1  0.68112000  0.18927000  0.41871000  1.0
  C  C73  1  0.19443000  0.81265000  0.07718000  1.0
  C  C74  1  0.38507000  0.89356000  0.76456000  1.0
  C  C75  1  0.87619000  0.10395000  0.73716000  1.0
  C  C76  1  0.61493000  0.10645000  0.23543000  1.0
  C  C77  1  0.12383000  0.89604000  0.26284000  1.0
  C  C78  1  0.32352000  0.13276000  0.80557000  1.0
  C  C79  1  0.82138000  0.86452000  0.69802000  1.0
  C  C80  1  0.67646000  0.86723000  0.19443000  1.0
  C  C81  1  0.17863000  0.13548000  0.30199000  1.0
  C  C82  1  0.38780000  0.99862000  0.83694000  1.0
  C  C83  1  0.88196000  0.99968000  0.66385000  1.0
  C  C84  1  0.61219000  0.00138000  0.16306000  1.0
  C  C85  1  0.11805000  0.00031000  0.33615000  1.0
  C  C86  1  0.44699000  0.77430000  0.52400000  1.0
  C  C87  1  0.93002000  0.22169000  0.97792000  1.0
  C  C88  1  0.55301000  0.22570000  0.47599000  1.0
  C  C89  1  0.06998000  0.77831000  0.02208000  1.0
  N  N90  1  0.18812000  0.63067000  0.49963000  1.0
  N  N91  1  0.67320000  0.38059000  0.99597000  1.0
  N  N92  1  0.81188000  0.36933000  0.50038000  1.0
  N  N93  1  0.32680000  0.61941000  0.00403000  1.0
  O  O94  1  0.12318000  0.32284000  0.56858000  1.0
  O  O95  1  0.61098000  0.67097000  0.93753000  1.0
  O  O96  1  0.87681000  0.67716000  0.43142000  1.0
  O  O97  1  0.38902000  0.32903000  0.06248000  1.0
  O  O98  1  0.18732000  0.39986000  0.73333000  1.0
  O  O99  1  0.70028000  0.59405000  0.77473000  1.0
  O  O100  1  0.81267000  0.60014000  0.26667000  1.0
  O  O101  1  0.29972000  0.40595000  0.22528000  1.0
  O  O102  1  0.04522000  0.45599000  0.33431000  1.0
  O  O103  1  0.54481000  0.55274000  0.17793000  1.0
  O  O104  1  0.95479000  0.54402000  0.66569000  1.0
  O  O105  1  0.45519000  0.44726000  0.82207000  1.0
