# generated using pymatgen
data_Nd2H22C8S3(NO10)2
_symmetry_space_group_name_H-M   'P 1'
_cell_length_a   6.62809000
_cell_length_b   12.62030000
_cell_length_c   13.52770000
_cell_angle_alpha   79.37730000
_cell_angle_beta   75.89010000
_cell_angle_gamma   74.78490000
_symmetry_Int_Tables_number   1
_chemical_formula_structural   Nd2H22C8S3(NO10)2
_chemical_formula_sum   'Nd4 H44 C16 S6 N4 O40'
_cell_volume   1050.16909013
_cell_formula_units_Z   2
loop_
 _symmetry_equiv_pos_site_id
 _symmetry_equiv_pos_as_xyz
  1  'x, y, z'
loop_
 _atom_site_type_symbol
 _atom_site_label
 _atom_site_symmetry_multiplicity
 _atom_site_fract_x
 _atom_site_fract_y
 _atom_site_fract_z
 _atom_site_occupancy
  Nd  Nd0  1  0.09931000  0.54938000  0.13161000  1.0
  Nd  Nd1  1  0.78027000  0.95069000  0.36840000  1.0
  Nd  Nd2  1  0.90069000  0.45062000  0.86839000  1.0
  Nd  Nd3  1  0.21973000  0.04931000  0.63160000  1.0
  H  H4  1  0.31594000  0.97607000  0.91018000  1.0
  H  H5  1  0.20247000  0.52396000  0.58972000  1.0
  H  H6  1  0.68406000  0.02393000  0.08982000  1.0
  H  H7  1  0.79753000  0.47604000  0.41028000  1.0
  H  H8  1  0.20036000  0.91034000  0.03256000  1.0
  H  H9  1  0.14335000  0.58977000  0.46729000  1.0
  H  H10  1  0.79964000  0.08966000  0.96744000  1.0
  H  H11  1  0.85665000  0.41023000  0.53271000  1.0
  H  H12  1  0.69539000  0.63929000  0.27905000  1.0
  H  H13  1  0.61380000  0.86052000  0.22100000  1.0
  H  H14  1  0.30461000  0.36071000  0.72095000  1.0
  H  H15  1  0.38620000  0.13948000  0.77900000  1.0
  H  H16  1  0.86155000  0.68237000  0.31869000  1.0
  H  H17  1  0.86261000  0.81759000  0.18148000  1.0
  H  H18  1  0.13845000  0.31763000  0.68131000  1.0
  H  H19  1  0.13739000  0.18241000  0.81852000  1.0
  H  H20  1  0.11577000  0.32816000  0.27979000  1.0
  H  H21  1  0.72369000  0.17207000  0.22017000  1.0
  H  H22  1  0.88423000  0.67184000  0.72021000  1.0
  H  H23  1  0.27631000  0.82793000  0.77983000  1.0
  H  H24  1  0.32945000  0.36365000  0.26205000  1.0
  H  H25  1  0.95506000  0.13635000  0.23797000  1.0
  H  H26  1  0.67055000  0.63635000  0.73796000  1.0
  H  H27  1  0.04494000  0.86365000  0.76203000  1.0
  H  H28  1  0.63051000  0.79161000  0.87391000  1.0
  H  H29  1  0.29671000  0.70848000  0.62604000  1.0
  H  H30  1  0.36949000  0.20839000  0.12609000  1.0
  H  H31  1  0.70329000  0.29152000  0.37396000  1.0
  H  H32  1  0.42720000  0.74709000  0.97489000  1.0
  H  H33  1  0.14969000  0.75302000  0.52495000  1.0
  H  H34  1  0.57281000  0.25291000  0.02511000  1.0
  H  H35  1  0.85031000  0.24698000  0.47505000  1.0
  H  H36  1  0.13843000  0.11615000  0.03278000  1.0
  H  H37  1  0.28713000  0.38401000  0.46696000  1.0
  H  H38  1  0.86157000  0.88385000  0.96722000  1.0
  H  H39  1  0.71288000  0.61599000  0.53304000  1.0
  H  H40  1  0.28894000  0.03689000  0.12515000  1.0
  H  H41  1  0.45059000  0.46326000  0.37476000  1.0
  H  H42  1  0.71106000  0.96311000  0.87485000  1.0
  H  H43  1  0.54941000  0.53674000  0.62524000  1.0
  H  H44  1  0.52392000  0.85796000  0.08205000  1.0
  H  H45  1  0.46386000  0.64201000  0.41798000  1.0
  H  H46  1  0.47608000  0.14204000  0.91795000  1.0
  H  H47  1  0.53614000  0.35799000  0.58202000  1.0
  C  C48  1  0.32243000  0.95621000  0.99196000  1.0
  C  C49  1  0.27071000  0.54385000  0.50797000  1.0
  C  C50  1  0.67757000  0.04379000  0.00804000  1.0
  C  C51  1  0.72930000  0.45614000  0.49203000  1.0
  C  C52  1  0.74184000  0.68803000  0.00539000  1.0
  C  C53  1  0.43560000  0.81195000  0.49456000  1.0
  C  C54  1  0.25816000  0.31196000  0.99461000  1.0
  C  C55  1  0.56439000  0.18805000  0.50545000  1.0
  C  C56  1  0.57596000  0.77629000  0.95760000  1.0
  C  C57  1  0.31032000  0.72375000  0.54235000  1.0
  C  C58  1  0.42404000  0.22371000  0.04240000  1.0
  C  C59  1  0.68968000  0.27625000  0.45765000  1.0
  C  C60  1  0.28979000  0.05869000  0.04266000  1.0
  C  C61  1  0.39097000  0.44139000  0.45723000  1.0
  C  C62  1  0.71021000  0.94131000  0.95734000  1.0
  C  C63  1  0.60903000  0.55861000  0.54277000  1.0
  S  S64  1  0.33911000  0.58999000  0.85668000  1.0
  S  S65  1  0.78582000  0.90995000  0.64331000  1.0
  S  S66  1  0.66089000  0.41001000  0.14331000  1.0
  S  S67  1  0.21418000  0.09005000  0.35669000  1.0
  S  S68  1  0.26567000  0.74999000  0.25007000  1.0
  S  S69  1  0.73433000  0.25001000  0.74993000  1.0
  N  N70  1  0.53435000  0.88135000  0.00253000  1.0
  N  N71  1  0.41838000  0.61865000  0.49750000  1.0
  N  N72  1  0.46564000  0.11865000  0.99747000  1.0
  N  N73  1  0.58162000  0.38135000  0.50250000  1.0
  O  O74  1  0.23197000  0.63439000  0.95576000  1.0
  O  O75  1  0.82195000  0.86552000  0.54424000  1.0
  O  O76  1  0.76802000  0.36561000  0.04425000  1.0
  O  O77  1  0.17804000  0.13449000  0.45576000  1.0
  O  O78  1  0.40948000  0.68144000  0.77946000  1.0
  O  O79  1  0.87034000  0.81851000  0.72063000  1.0
  O  O80  1  0.59052000  0.31856000  0.22054000  1.0
  O  O81  1  0.12966000  0.18149000  0.27937000  1.0
  O  O82  1  0.19193000  0.54619000  0.81653000  1.0
  O  O83  1  0.55491000  0.95390000  0.68333000  1.0
  O  O84  1  0.80807000  0.45381000  0.18347000  1.0
  O  O85  1  0.44509000  0.04610000  0.31667000  1.0
  O  O86  1  0.52888000  0.49971000  0.87108000  1.0
  O  O87  1  0.89978000  0.00021000  0.62891000  1.0
  O  O88  1  0.47112000  0.50029000  0.12892000  1.0
  O  O89  1  0.10022000  0.99979000  0.37109000  1.0
  O  O90  1  0.18961000  0.72006000  0.16540000  1.0
  O  O91  1  0.07546000  0.77997000  0.33471000  1.0
  O  O92  1  0.81039000  0.27994000  0.83460000  1.0
  O  O93  1  0.92454000  0.22004000  0.66529000  1.0
  O  O94  1  0.36658000  0.84567000  0.20883000  1.0
  O  O95  1  0.42100000  0.65423000  0.29134000  1.0
  O  O96  1  0.63343000  0.15433000  0.79117000  1.0
  O  O97  1  0.57900000  0.34577000  0.70866000  1.0
  O  O98  1  0.80477000  0.70872000  0.07967000  1.0
  O  O99  1  0.59329000  0.79126000  0.42038000  1.0
  O  O100  1  0.19523000  0.29128000  0.92033000  1.0
  O  O101  1  0.40671000  0.20874000  0.57962000  1.0
  O  O102  1  0.80647000  0.59742000  0.96874000  1.0
  O  O103  1  0.37297000  0.90260000  0.53121000  1.0
  O  O104  1  0.19353000  0.40258000  0.03127000  1.0
  O  O105  1  0.62703000  0.09739000  0.46879000  1.0
  O  O106  1  0.84472000  0.62016000  0.28990000  1.0
  O  O107  1  0.75467000  0.87981000  0.21013000  1.0
  O  O108  1  0.15528000  0.37984000  0.71010000  1.0
  O  O109  1  0.24533000  0.12019000  0.78987000  1.0
  O  O110  1  0.17128000  0.39475000  0.27551000  1.0
  O  O111  1  0.84123000  0.10535000  0.22452000  1.0
  O  O112  1  0.82872000  0.60525000  0.72449000  1.0
  O  O113  1  0.15877000  0.89465000  0.77548000  1.0
