# generated using pymatgen
data_Zn4H4C24S4Cl4O13
_symmetry_space_group_name_H-M   'P 1'
_cell_length_a   19.65390000
_cell_length_b   19.72650000
_cell_length_c   33.34240000
_cell_angle_alpha   79.08070000
_cell_angle_beta   79.28440000
_cell_angle_gamma   64.02160000
_symmetry_Int_Tables_number   1
_chemical_formula_structural   Zn4H4C24S4Cl4O13
_chemical_formula_sum   'Zn16 H16 C96 S16 Cl16 O52'
_cell_volume   11332.50560288
_cell_formula_units_Z   4
loop_
 _symmetry_equiv_pos_site_id
 _symmetry_equiv_pos_as_xyz
  1  'x, y, z'
loop_
 _atom_site_type_symbol
 _atom_site_label
 _atom_site_symmetry_multiplicity
 _atom_site_fract_x
 _atom_site_fract_y
 _atom_site_fract_z
 _atom_site_occupancy
  Zn  Zn0  1  0.05618000  0.40050000  0.47818000  1.0
  Zn  Zn1  1  0.98473000  0.48375000  0.55987000  1.0
  Zn  Zn2  1  0.05873000  0.56182000  0.48332000  1.0
  Zn  Zn3  1  0.90045000  0.55365000  0.47878000  1.0
  Zn  Zn4  1  0.69356000  0.34961000  0.27172000  1.0
  Zn  Zn5  1  0.69097000  0.18843000  0.26656000  1.0
  Zn  Zn6  1  0.76790000  0.26511000  0.18961000  1.0
  Zn  Zn7  1  0.84735000  0.19704000  0.27231000  1.0
  Zn  Zn8  1  0.26524000  0.76613000  0.69023000  1.0
  Zn  Zn9  1  0.34942000  0.69644000  0.77128000  1.0
  Zn  Zn10  1  0.19368000  0.84950000  0.77193000  1.0
  Zn  Zn11  1  0.19111000  0.68824000  0.76673000  1.0
  Zn  Zn12  1  0.55885000  0.06167000  0.98347000  1.0
  Zn  Zn13  1  0.40261000  0.05303000  0.97772000  1.0
  Zn  Zn14  1  0.55638000  0.90029000  0.97839000  1.0
  Zn  Zn15  1  0.48226000  0.98471000  0.06042000  1.0
  H  H16  1  0.79639000  0.50199000  0.39906000  1.0
  H  H17  1  0.95337000  0.24874000  0.35080000  1.0
  H  H18  1  0.74765000  0.45433000  0.35071000  1.0
  H  H19  1  0.00210000  0.29641000  0.39911000  1.0
  H  H20  1  0.15249000  0.65262000  0.54927000  1.0
  H  H21  1  0.09759000  0.59735000  0.70073000  1.0
  H  H22  1  0.20083000  0.70050000  0.59772000  1.0
  H  H23  1  0.04925000  0.54946000  0.65228000  1.0
  H  H24  1  0.70089000  0.20039000  0.09756000  1.0
  H  H25  1  0.54917000  0.04958000  0.15244000  1.0
  H  H26  1  0.65220000  0.15259000  0.04927000  1.0
  H  H27  1  0.59785000  0.09740000  0.20074000  1.0
  H  H28  1  0.24804000  0.95383000  0.85072000  1.0
  H  H29  1  0.50244000  0.79593000  0.89914000  1.0
  H  H30  1  0.29675000  0.00151000  0.89906000  1.0
  H  H31  1  0.45378000  0.74826000  0.85078000  1.0
  C  C32  1  0.06163000  0.31637000  0.56156000  1.0
  C  C33  1  0.06955000  0.56995000  0.56946000  1.0
  C  C34  1  0.18361000  0.43978000  0.43881000  1.0
  C  C35  1  0.93728000  0.68387000  0.43882000  1.0
  C  C36  1  0.93059000  0.43016000  0.43062000  1.0
  C  C37  1  0.81658000  0.56084000  0.56180000  1.0
  C  C38  1  0.56620000  0.31030000  0.31125000  1.0
  C  C39  1  0.68116000  0.17971000  0.18046000  1.0
  C  C40  1  0.68936000  0.43306000  0.18827000  1.0
  C  C41  1  0.93436000  0.18831000  0.18922000  1.0
  C  C42  1  0.81879000  0.32044000  0.31955000  1.0
  C  C43  1  0.81209000  0.06627000  0.31141000  1.0
  C  C44  1  0.43329000  0.68930000  0.68827000  1.0
  C  C45  1  0.31939000  0.82010000  0.81931000  1.0
  C  C46  1  0.18866000  0.93341000  0.68847000  1.0
  C  C47  1  0.06616000  0.81031000  0.81124000  1.0
  C  C48  1  0.18056000  0.67992000  0.68055000  1.0
  C  C49  1  0.31265000  0.56617000  0.81114000  1.0
  C  C50  1  0.43774000  0.18381000  0.93859000  1.0
  C  C51  1  0.43120000  0.92976000  0.93039000  1.0
  C  C52  1  0.68354000  0.93981000  0.93876000  1.0
  C  C53  1  0.56098000  0.81669000  0.06178000  1.0
  C  C54  1  0.56896000  0.07016000  0.06956000  1.0
  C  C55  1  0.31580000  0.06157000  0.06086000  1.0
  C  C56  1  0.90192000  0.40184000  0.40178000  1.0
  C  C57  1  0.84777000  0.34893000  0.34812000  1.0
  C  C58  1  0.83015000  0.44670000  0.38825000  1.0
  C  C59  1  0.91960000  0.30405000  0.36160000  1.0
  C  C60  1  0.80321000  0.42039000  0.36155000  1.0
  C  C61  1  0.94655000  0.33040000  0.38829000  1.0
  C  C62  1  0.09826000  0.59844000  0.59813000  1.0
  C  C63  1  0.15187000  0.65146000  0.65186000  1.0
  C  C64  1  0.14091000  0.64097000  0.58247000  1.0
  C  C65  1  0.10919000  0.60896000  0.66753000  1.0
  C  C66  1  0.16762000  0.66737000  0.60923000  1.0
  C  C67  1  0.08249000  0.58254000  0.64078000  1.0
  C  C68  1  0.30497000  0.45442000  0.40070000  1.0
  C  C69  1  0.44476000  0.29570000  0.34927000  1.0
  C  C70  1  0.25844000  0.41583000  0.41391000  1.0
  C  C71  1  0.49133000  0.33427000  0.33611000  1.0
  C  C72  1  0.37679000  0.33955000  0.37282000  1.0
  C  C73  1  0.37291000  0.41058000  0.37710000  1.0
  C  C74  1  0.72556000  0.57599000  0.62982000  1.0
  C  C75  1  0.52422000  0.67409000  0.62027000  1.0
  C  C76  1  0.74232000  0.58539000  0.58719000  1.0
  C  C77  1  0.50755000  0.66470000  0.66290000  1.0
  C  C78  1  0.60380000  0.64172000  0.60821000  1.0
  C  C79  1  0.64600000  0.60838000  0.64186000  1.0
  C  C80  1  0.07630000  0.22518000  0.62966000  1.0
  C  C81  1  0.17387000  0.02452000  0.62036000  1.0
  C  C82  1  0.08574000  0.24216000  0.58702000  1.0
  C  C83  1  0.16449000  0.00761000  0.66300000  1.0
  C  C84  1  0.14164000  0.10394000  0.60822000  1.0
  C  C85  1  0.10848000  0.14578000  0.64181000  1.0
  C  C86  1  0.84300000  0.80142000  0.39707000  1.0
  C  C87  1  0.90663000  0.94855000  0.35284000  1.0
  C  C88  1  0.91155000  0.75846000  0.41373000  1.0
  C  C89  1  0.83800000  0.99147000  0.33624000  1.0
  C  C90  1  0.90848000  0.87915000  0.37500000  1.0
  C  C91  1  0.84130000  0.87070000  0.37482000  1.0
  C  C92  1  0.65213000  0.15141000  0.15180000  1.0
  C  C93  1  0.59800000  0.09846000  0.09820000  1.0
  C  C94  1  0.66768000  0.16728000  0.10915000  1.0
  C  C95  1  0.58243000  0.08263000  0.14086000  1.0
  C  C96  1  0.64073000  0.14092000  0.08247000  1.0
  C  C97  1  0.60936000  0.10901000  0.16754000  1.0
  C  C98  1  0.67392000  0.52457000  0.12023000  1.0
  C  C99  1  0.57621000  0.72512000  0.12983000  1.0
  C  C100  1  0.66477000  0.50739000  0.16285000  1.0
  C  C101  1  0.58541000  0.74238000  0.08720000  1.0
  C  C102  1  0.60854000  0.64569000  0.14186000  1.0
  C  C103  1  0.64160000  0.60403000  0.10819000  1.0
  C  C104  1  0.08191000  0.12375000  0.17779000  1.0
  C  C105  1  0.16830000  0.12598000  0.07234000  1.0
  C  C106  1  0.00961000  0.16283000  0.16483000  1.0
  C  C107  1  0.24059000  0.08691000  0.08529000  1.0
  C  C108  1  0.11044000  0.13937000  0.10610000  1.0
  C  C109  1  0.13979000  0.11029000  0.14403000  1.0
  C  C110  1  0.34824000  0.84848000  0.84803000  1.0
  C  C111  1  0.40235000  0.90133000  0.90173000  1.0
  C  C112  1  0.30361000  0.91988000  0.86154000  1.0
  C  C113  1  0.44692000  0.82989000  0.88828000  1.0
  C  C114  1  0.33052000  0.94622000  0.88825000  1.0
  C  C115  1  0.42001000  0.80358000  0.86155000  1.0
  C  C116  1  0.40695000  0.44863000  0.85288000  1.0
  C  C117  1  0.34329000  0.30151000  0.89709000  1.0
  C  C118  1  0.33840000  0.49154000  0.83619000  1.0
  C  C119  1  0.41191000  0.25854000  0.91370000  1.0
  C  C120  1  0.34152000  0.37085000  0.87490000  1.0
  C  C121  1  0.40871000  0.37930000  0.87508000  1.0
  C  C122  1  0.94473000  0.79570000  0.84927000  1.0
  C  C123  1  0.80493000  0.95444000  0.90068000  1.0
  C  C124  1  0.99129000  0.83427000  0.83610000  1.0
  C  C125  1  0.75840000  0.91586000  0.91388000  1.0
  C  C126  1  0.87288000  0.91059000  0.87710000  1.0
  C  C127  1  0.87677000  0.83956000  0.87281000  1.0
  S  S128  1  0.29786000  0.32611000  0.39745000  1.0
  S  S129  1  0.45186000  0.42402000  0.35252000  1.0
  S  S130  1  0.66082000  0.63374000  0.56197000  1.0
  S  S131  1  0.58903000  0.61637000  0.68810000  1.0
  S  S132  1  0.13378000  0.16108000  0.56192000  1.0
  S  S133  1  0.11639000  0.08867000  0.68810000  1.0
  S  S134  1  0.97369000  0.80289000  0.40217000  1.0
  S  S135  1  0.77599000  0.94696000  0.34771000  1.0
  S  S136  1  0.61666000  0.58831000  0.18808000  1.0
  S  S137  1  0.63349000  0.66144000  0.06196000  1.0
  S  S138  1  0.01257000  0.18300000  0.11147000  1.0
  S  S139  1  0.23764000  0.06669000  0.13865000  1.0
  S  S140  1  0.27631000  0.44708000  0.84771000  1.0
  S  S141  1  0.47397000  0.30302000  0.90221000  1.0
  S  S142  1  0.95183000  0.92403000  0.85251000  1.0
  S  S143  1  0.79783000  0.82612000  0.89745000  1.0
  Cl  Cl144  1  0.28669000  0.54307000  0.41038000  1.0
  Cl  Cl145  1  0.46306000  0.20705000  0.33957000  1.0
  Cl  Cl146  1  0.78928000  0.53182000  0.66505000  1.0
  Cl  Cl147  1  0.46054000  0.71820000  0.58501000  1.0
  Cl  Cl148  1  0.03229000  0.28846000  0.66482000  1.0
  Cl  Cl149  1  0.21779000  0.96126000  0.58520000  1.0
  Cl  Cl150  1  0.76806000  0.77762000  0.40141000  1.0
  Cl  Cl151  1  0.98155000  0.97238000  0.34846000  1.0
  Cl  Cl152  1  0.71766000  0.46146000  0.08498000  1.0
  Cl  Cl153  1  0.53244000  0.78825000  0.16507000  1.0
  Cl  Cl154  1  0.10294000  0.09382000  0.22726000  1.0
  Cl  Cl155  1  0.14732000  0.15599000  0.02286000  1.0
  Cl  Cl156  1  0.48191000  0.47239000  0.84852000  1.0
  Cl  Cl157  1  0.26834000  0.27770000  0.90150000  1.0
  Cl  Cl158  1  0.96305000  0.70705000  0.83958000  1.0
  Cl  Cl159  1  0.78664000  0.04309000  0.91038000  1.0
  O  O160  1  0.00047000  0.49945000  0.49953000  1.0
  O  O161  1  0.07851000  0.31463000  0.52262000  1.0
  O  O162  1  0.03165000  0.53106000  0.58579000  1.0
  O  O163  1  0.15491000  0.50554000  0.45048000  1.0
  O  O164  1  0.02650000  0.37517000  0.58022000  1.0
  O  O165  1  0.15430000  0.39136000  0.44639000  1.0
  O  O166  1  0.08510000  0.58666000  0.53098000  1.0
  O  O167  1  0.00408000  0.65830000  0.44993000  1.0
  O  O168  1  0.88668000  0.49536000  0.44193000  1.0
  O  O169  1  0.89179000  0.65162000  0.44729000  1.0
  O  O170  1  0.99649000  0.38691000  0.44164000  1.0
  O  O171  1  0.87583000  0.52601000  0.58043000  1.0
  O  O172  1  0.81442000  0.57710000  0.52282000  1.0
  O  O173  1  0.74897000  0.25100000  0.25001000  1.0
  O  O174  1  0.59551000  0.35873000  0.30366000  1.0
  O  O175  1  0.66510000  0.16331000  0.21893000  1.0
  O  O176  1  0.72506000  0.37422000  0.16969000  1.0
  O  O177  1  0.59498000  0.24450000  0.29964000  1.0
  O  O178  1  0.67214000  0.43499000  0.22720000  1.0
  O  O179  1  0.71972000  0.21796000  0.16420000  1.0
  O  O180  1  0.87701000  0.22309000  0.16863000  1.0
  O  O181  1  0.86245000  0.25484000  0.30866000  1.0
  O  O182  1  0.93264000  0.17387000  0.22817000  1.0
  O  O183  1  0.75305000  0.36361000  0.30834000  1.0
  O  O184  1  0.74555000  0.09180000  0.30000000  1.0
  O  O185  1  0.85730000  0.09884000  0.30347000  1.0
  O  O186  1  0.24939000  0.75059000  0.75056000  1.0
  O  O187  1  0.37407000  0.72408000  0.66961000  1.0
  O  O188  1  0.36325000  0.75484000  0.80803000  1.0
  O  O189  1  0.17198000  0.93517000  0.72741000  1.0
  O  O190  1  0.43542000  0.67308000  0.72725000  1.0
  O  O191  1  0.22356000  0.87462000  0.66979000  1.0
  O  O192  1  0.25341000  0.86325000  0.80837000  1.0
  O  O193  1  0.09547000  0.85874000  0.80366000  1.0
  O  O194  1  0.16502000  0.66320000  0.71904000  1.0
  O  O195  1  0.09492000  0.74452000  0.79959000  1.0
  O  O196  1  0.21843000  0.71884000  0.66422000  1.0
  O  O197  1  0.35810000  0.59849000  0.80275000  1.0
  O  O198  1  0.24587000  0.59171000  0.80002000  1.0
  O  O199  1  0.50098000  0.99897000  0.00002000  1.0
  O  O200  1  0.50432000  0.15823000  0.94998000  1.0
  O  O201  1  0.38752000  0.99534000  0.94128000  1.0
  O  O202  1  0.65428000  0.89136000  0.94638000  1.0
  O  O203  1  0.39246000  0.15132000  0.94660000  1.0
  O  O204  1  0.65478000  0.00564000  0.95036000  1.0
  O  O205  1  0.49688000  0.88650000  0.94168000  1.0
  O  O206  1  0.57828000  0.81478000  0.02286000  1.0
  O  O207  1  0.53029000  0.03202000  0.08583000  1.0
  O  O208  1  0.52527000  0.87557000  0.08035000  1.0
  O  O209  1  0.58506000  0.08648000  0.03109000  1.0
  O  O210  1  0.31744000  0.07605000  0.02192000  1.0
  O  O211  1  0.37320000  0.02684000  0.08141000  1.0
