# generated using pymatgen
data_AgH8C12SN2O2F3
_symmetry_space_group_name_H-M   'P 1'
_cell_length_a   9.29188000
_cell_length_b   9.29189000
_cell_length_c   17.42510000
_cell_angle_alpha   82.85460000
_cell_angle_beta   82.85450000
_cell_angle_gamma   63.84190000
_symmetry_Int_Tables_number   1
_chemical_formula_structural   AgH8C12SN2O2F3
_chemical_formula_sum   'Ag4 H32 C48 S4 N8 O8 F12'
_cell_volume   1335.80207230
_cell_formula_units_Z   4
loop_
 _symmetry_equiv_pos_site_id
 _symmetry_equiv_pos_as_xyz
  1  'x, y, z'
loop_
 _atom_site_type_symbol
 _atom_site_label
 _atom_site_symmetry_multiplicity
 _atom_site_fract_x
 _atom_site_fract_y
 _atom_site_fract_z
 _atom_site_occupancy
  Ag  Ag0  1  0.66774000  0.40770000  0.41773000  1.0
  Ag  Ag1  1  0.40770000  0.66774000  0.91773000  1.0
  Ag  Ag2  1  0.33226000  0.59230000  0.58227000  1.0
  Ag  Ag3  1  0.59229000  0.33226000  0.08227000  1.0
  H  H4  1  0.09854000  0.64613000  0.38626000  1.0
  H  H5  1  0.64613000  0.09854000  0.88626000  1.0
  H  H6  1  0.90146000  0.35387000  0.61374000  1.0
  H  H7  1  0.35387000  0.90146000  0.11374000  1.0
  H  H8  1  0.94672000  0.85975000  0.48022000  1.0
  H  H9  1  0.85975000  0.94672000  0.98022000  1.0
  H  H10  1  0.05328000  0.14025000  0.51978000  1.0
  H  H11  1  0.14025000  0.05327000  0.01978000  1.0
  H  H12  1  0.67519000  0.89165000  0.53731000  1.0
  H  H13  1  0.89165000  0.67519000  0.03731000  1.0
  H  H14  1  0.32481000  0.10835000  0.46269000  1.0
  H  H15  1  0.10835000  0.32481000  0.96269000  1.0
  H  H16  1  0.56937000  0.70277000  0.50425000  1.0
  H  H17  1  0.70277000  0.56937000  0.00425000  1.0
  H  H18  1  0.43063000  0.29723000  0.49575000  1.0
  H  H19  1  0.29723000  0.43063000  0.99575000  1.0
  H  H20  1  0.55959000  0.61283000  0.18053000  1.0
  H  H21  1  0.61283000  0.55959000  0.68053000  1.0
  H  H22  1  0.44041000  0.38717000  0.81947000  1.0
  H  H23  1  0.38717000  0.44041000  0.31947000  1.0
  H  H24  1  0.70569000  0.64456000  0.28264000  1.0
  H  H25  1  0.64456000  0.70569000  0.78264000  1.0
  H  H26  1  0.29431000  0.35544000  0.71736000  1.0
  H  H27  1  0.35544000  0.29431000  0.21736000  1.0
  H  H28  1  0.09236000  0.18046000  0.23103000  1.0
  H  H29  1  0.18046000  0.09236000  0.73104000  1.0
  H  H30  1  0.90764000  0.81954000  0.76897000  1.0
  H  H31  1  0.81954000  0.90764000  0.26897000  1.0
  H  H32  1  0.93128000  0.17366000  0.12910000  1.0
  H  H33  1  0.17366000  0.93128000  0.62911000  1.0
  H  H34  1  0.06872000  0.82634000  0.87090000  1.0
  H  H35  1  0.82634000  0.06872000  0.37090000  1.0
  C  C36  1  0.91187000  0.56500000  0.39714000  1.0
  C  C37  1  0.56500000  0.91187000  0.89714000  1.0
  C  C38  1  0.08813000  0.43500000  0.60286000  1.0
  C  C39  1  0.43500000  0.08813000  0.10286000  1.0
  C  C40  1  0.98068000  0.66363000  0.41348000  1.0
  C  C41  1  0.66364000  0.98068000  0.91348000  1.0
  C  C42  1  0.01932000  0.33637000  0.58652000  1.0
  C  C43  1  0.33637000  0.01932000  0.08652000  1.0
  C  C44  1  0.89662000  0.78144000  0.46538000  1.0
  C  C45  1  0.78144000  0.89662000  0.96538000  1.0
  C  C46  1  0.10338000  0.21856000  0.53462000  1.0
  C  C47  1  0.21856000  0.10338000  0.03462000  1.0
  C  C48  1  0.74507000  0.79920000  0.49759000  1.0
  C  C49  1  0.79920000  0.74507000  0.99759000  1.0
  C  C50  1  0.25493000  0.20080000  0.50240000  1.0
  C  C51  1  0.20080000  0.25493000  0.00241000  1.0
  C  C52  1  0.68538000  0.69568000  0.47875000  1.0
  C  C53  1  0.69568000  0.68538000  0.97875000  1.0
  C  C54  1  0.31461000  0.30432000  0.52125000  1.0
  C  C55  1  0.30432000  0.31462000  0.02125000  1.0
  C  C56  1  0.67874000  0.52072000  0.19346000  1.0
  C  C57  1  0.52072000  0.67874000  0.69346000  1.0
  C  C58  1  0.32126000  0.47927000  0.80654000  1.0
  C  C59  1  0.47928000  0.32126000  0.30654000  1.0
  C  C60  1  0.76070000  0.53708000  0.25090000  1.0
  C  C61  1  0.53708000  0.76070000  0.75090000  1.0
  C  C62  1  0.23930000  0.46292000  0.74910000  1.0
  C  C63  1  0.46292000  0.23930000  0.24910000  1.0
  C  C64  1  0.91153000  0.41249000  0.26692000  1.0
  C  C65  1  0.41249000  0.91153000  0.76692000  1.0
  C  C66  1  0.08847000  0.58751000  0.73308000  1.0
  C  C67  1  0.58751000  0.08848000  0.23308000  1.0
  C  C68  1  0.97575000  0.28044000  0.22131000  1.0
  C  C69  1  0.28044000  0.97574000  0.72131000  1.0
  C  C70  1  0.02426000  0.71956000  0.77869000  1.0
  C  C71  1  0.71956000  0.02426000  0.27869000  1.0
  C  C72  1  0.88587000  0.27506000  0.16489000  1.0
  C  C73  1  0.27506000  0.88586000  0.66489000  1.0
  C  C74  1  0.11414000  0.72494000  0.83511000  1.0
  C  C75  1  0.72494000  0.11414000  0.33511000  1.0
  C  C76  1  0.70083000  0.22879000  0.57296000  1.0
  C  C77  1  0.22879000  0.70083000  0.07296000  1.0
  C  C78  1  0.29917000  0.77121000  0.42704000  1.0
  C  C79  1  0.77121000  0.29917000  0.92704000  1.0
  C  C80  1  0.70918000  0.13088000  0.65310000  1.0
  C  C81  1  0.13088000  0.70918000  0.15310000  1.0
  C  C82  1  0.29081000  0.86912000  0.34690000  1.0
  C  C83  1  0.86912000  0.29082000  0.84690000  1.0
  S  S84  1  0.03183000  0.40413000  0.33881000  1.0
  S  S85  1  0.40413000  0.03182000  0.83881000  1.0
  S  S86  1  0.96818000  0.59587000  0.66119000  1.0
  S  S87  1  0.59587000  0.96818000  0.16119000  1.0
  N  N88  1  0.76757000  0.57853000  0.43014000  1.0
  N  N89  1  0.57853000  0.76757000  0.93014000  1.0
  N  N90  1  0.23243000  0.42147000  0.56986000  1.0
  N  N91  1  0.42147000  0.23243000  0.06986000  1.0
  N  N92  1  0.73786000  0.39120000  0.15168000  1.0
  N  N93  1  0.39119000  0.73786000  0.65168000  1.0
  N  N94  1  0.26214000  0.60880000  0.84832000  1.0
  N  N95  1  0.60880000  0.26214000  0.34832000  1.0
  O  O96  1  0.63851000  0.37986000  0.57420000  1.0
  O  O97  1  0.37986000  0.63851000  0.07420000  1.0
  O  O98  1  0.36149000  0.62014000  0.42580000  1.0
  O  O99  1  0.62014000  0.36149000  0.92580000  1.0
  O  O100  1  0.76100000  0.14369000  0.51642000  1.0
  O  O101  1  0.14369000  0.76100000  0.01641000  1.0
  O  O102  1  0.23900000  0.85631000  0.48359000  1.0
  O  O103  1  0.85631000  0.23900000  0.98359000  1.0
  F  F104  1  0.62379000  0.22244000  0.71270000  1.0
  F  F105  1  0.22243000  0.62379000  0.21270000  1.0
  F  F106  1  0.37621000  0.77756000  0.28730000  1.0
  F  F107  1  0.77756000  0.37621000  0.78730000  1.0
  F  F108  1  0.86568000  0.05040000  0.67241000  1.0
  F  F109  1  0.05040000  0.86568000  0.17241000  1.0
  F  F110  1  0.13432000  0.94959000  0.32759000  1.0
  F  F111  1  0.94959000  0.13432000  0.82759000  1.0
  F  F112  1  0.65300000  0.01728000  0.65231000  1.0
  F  F113  1  0.01728000  0.65300000  0.15231000  1.0
  F  F114  1  0.34700000  0.98272000  0.34769000  1.0
  F  F115  1  0.98272000  0.34700000  0.84769000  1.0
