# generated using pymatgen
data_Nd2H3C4NO13
_symmetry_space_group_name_H-M   'P 1'
_cell_length_a   6.58734000
_cell_length_b   8.57295000
_cell_length_c   12.81840000
_cell_angle_alpha   72.41600000
_cell_angle_beta   87.04080000
_cell_angle_gamma   77.56600000
_symmetry_Int_Tables_number   1
_chemical_formula_structural   Nd2H3C4NO13
_chemical_formula_sum   'Nd4 H6 C8 N2 O26'
_cell_volume   673.81301293
_cell_formula_units_Z   2
loop_
 _symmetry_equiv_pos_site_id
 _symmetry_equiv_pos_as_xyz
  1  'x, y, z'
loop_
 _atom_site_type_symbol
 _atom_site_label
 _atom_site_symmetry_multiplicity
 _atom_site_fract_x
 _atom_site_fract_y
 _atom_site_fract_z
 _atom_site_occupancy
  Nd  Nd0  1  0.23109000  0.68418000  0.91954000  1.0
  Nd  Nd1  1  0.44732000  0.06577000  0.72808000  1.0
  Nd  Nd2  1  0.76890000  0.31584000  0.08045000  1.0
  Nd  Nd3  1  0.55267000  0.93423000  0.27192000  1.0
  H  H4  1  0.18261000  0.83751000  0.68615000  1.0
  H  H5  1  0.84966000  0.17521000  0.60522000  1.0
  H  H6  1  0.81602000  0.28286000  0.68541000  1.0
  H  H7  1  0.81740000  0.16247000  0.31385000  1.0
  H  H8  1  0.15036000  0.82476000  0.39479000  1.0
  H  H9  1  0.18400000  0.71711000  0.31461000  1.0
  C  C10  1  0.05782000  0.06014000  0.95684000  1.0
  C  C11  1  0.45956000  0.33640000  0.85843000  1.0
  C  C12  1  0.26268000  0.41311000  0.78222000  1.0
  C  C13  1  0.60937000  0.94108000  0.51830000  1.0
  C  C14  1  0.94218000  0.93986000  0.04315000  1.0
  C  C15  1  0.54044000  0.66361000  0.14157000  1.0
  C  C16  1  0.73732000  0.58689000  0.21777000  1.0
  C  C17  1  0.39062000  0.05892000  0.48171000  1.0
  N  N18  1  0.76094000  0.74510000  0.88382000  1.0
  N  N19  1  0.23906000  0.25490000  0.11618000  1.0
  O  O20  1  0.20016000  0.99172000  0.90405000  1.0
  O  O21  1  0.00283000  0.21466000  0.94572000  1.0
  O  O22  1  0.55916000  0.19302000  0.86068000  1.0
  O  O23  1  0.50482000  0.42527000  0.91510000  1.0
  O  O24  1  0.23164000  0.33341000  0.71781000  1.0
  O  O25  1  0.15088000  0.54741000  0.79071000  1.0
  O  O26  1  0.68162000  0.93637000  0.60903000  1.0
  O  O27  1  0.69708000  0.86093000  0.45411000  1.0
  O  O28  1  0.86352000  0.85315000  0.83490000  1.0
  O  O29  1  0.85293000  0.60228000  0.93998000  1.0
  O  O30  1  0.56472000  0.78544000  0.87522000  1.0
  O  O31  1  0.26389000  0.85668000  0.74033000  1.0
  O  O32  1  0.74544000  0.22298000  0.65006000  1.0
  O  O33  1  0.79983000  0.00829000  0.09594000  1.0
  O  O34  1  0.99717000  0.78535000  0.05428000  1.0
  O  O35  1  0.44084000  0.80700000  0.13931000  1.0
  O  O36  1  0.49520000  0.57475000  0.08490000  1.0
  O  O37  1  0.76837000  0.66666667  0.28220000  1.0
  O  O38  1  0.84912000  0.45260000  0.20929000  1.0
  O  O39  1  0.31837000  0.06363000  0.39097000  1.0
  O  O40  1  0.30292000  0.13907000  0.54588000  1.0
  O  O41  1  0.13649000  0.14685000  0.16510000  1.0
  O  O42  1  0.14707000  0.39770000  0.06002000  1.0
  O  O43  1  0.43527000  0.21456000  0.12478000  1.0
  O  O44  1  0.73609000  0.14332000  0.25967000  1.0
  O  O45  1  0.25456000  0.77703000  0.34994000  1.0
