# generated using pymatgen
data_CdCuH14C8Br4(N4O)3
_symmetry_space_group_name_H-M   'P 1'
_cell_length_a   10.50920000
_cell_length_b   10.50940000
_cell_length_c   13.13820783
_cell_angle_alpha   98.25848605
_cell_angle_beta   113.12583596
_cell_angle_gamma   109.23300000
_symmetry_Int_Tables_number   1
_chemical_formula_structural   CdCuH14C8Br4(N4O)3
_chemical_formula_sum   'Cd2 Cu2 H28 C16 Br8 N24 O6'
_cell_volume   1196.07327695
_cell_formula_units_Z   2
loop_
 _symmetry_equiv_pos_site_id
 _symmetry_equiv_pos_as_xyz
  1  'x, y, z'
loop_
 _atom_site_type_symbol
 _atom_site_label
 _atom_site_symmetry_multiplicity
 _atom_site_fract_x
 _atom_site_fract_y
 _atom_site_fract_z
 _atom_site_occupancy
  Cd  Cd0  1  0.40305000  0.14350000  0.77247000  1.0
  Cd  Cd1  1  0.12900000  0.36941000  0.27249000  1.0
  Cu  Cu2  1  0.68838000  0.77130000  0.96750000  1.0
  Cu  Cu3  1  0.69621000  0.27912000  0.46750000  1.0
  H  H4  1  0.78179000  0.49644000  0.90835000  1.0
  H  H5  1  0.91190000  0.12653000  0.40834000  1.0
  H  H6  1  0.83377000  0.61945000  0.85573000  1.0
  H  H7  1  0.73627000  0.02193000  0.35572000  1.0
  H  H8  1  0.69589000  0.03005000  0.08139000  1.0
  H  H9  1  0.55135000  0.38550000  0.58140000  1.0
  H  H10  1  0.52140000  0.94274000  0.98188000  1.0
  H  H11  1  0.53915000  0.46048000  0.48188000  1.0
  H  H12  1  0.69002000  0.03106000  0.87132000  1.0
  H  H13  1  0.34026000  0.18130000  0.37131000  1.0
  H  H14  1  0.02484000  0.97890000  0.78499000  1.0
  H  H15  1  0.30609000  0.76015000  0.28499000  1.0
  H  H16  1  0.99339000  0.32887000  0.89959000  1.0
  H  H17  1  0.07073000  0.90622000  0.39960000  1.0
  H  H18  1  0.68958000  0.01191000  0.56977000  1.0
  H  H19  1  0.05785000  0.88020000  0.06977000  1.0
  H  H20  1  0.31757000  0.65019000  0.83905000  1.0
  H  H21  1  0.68885000  0.52147000  0.33904000  1.0
  H  H22  1  0.35957000  0.63059000  0.52701000  1.0
  H  H23  1  0.39642000  0.16745000  0.02701000  1.0
  H  H24  1  0.05590000  0.36163000  0.59339000  1.0
  H  H25  1  0.73176000  0.53750000  0.09338000  1.0
  H  H26  1  0.10931000  0.77414000  0.57450000  1.0
  H  H27  1  0.30036000  0.46519000  0.07451000  1.0
  H  H28  1  0.58389000  0.44271000  0.75620000  1.0
  H  H29  1  0.81350000  0.17230000  0.25620000  1.0
  H  H30  1  0.40734000  0.36458000  0.66242000  1.0
  H  H31  1  0.79784000  0.25507000  0.16242000  1.0
  C  C32  1  0.76821000  0.98993000  0.86163000  1.0
  C  C33  1  0.37170000  0.09342000  0.36162000  1.0
  C  C34  1  0.94053000  0.96133000  0.81603000  1.0
  C  C35  1  0.35471000  0.87551000  0.31603000  1.0
  C  C36  1  0.91953000  0.28217000  0.80609000  1.0
  C  C37  1  0.02392000  0.88656000  0.30610000  1.0
  C  C38  1  0.76273000  0.11523000  0.63597000  1.0
  C  C39  1  0.02074000  0.87324000  0.13597000  1.0
  C  C40  1  0.36570000  0.65717000  0.77943000  1.0
  C  C41  1  0.62226000  0.41372000  0.27942000  1.0
  C  C42  1  0.38888000  0.64705000  0.61861000  1.0
  C  C43  1  0.47156000  0.22974000  0.11860000  1.0
  C  C44  1  0.02624000  0.44758000  0.57220000  1.0
  C  C45  1  0.62461000  0.54596000  0.07220000  1.0
  C  C46  1  0.05184000  0.66218000  0.56300000  1.0
  C  C47  1  0.40081000  0.51116000  0.06301000  1.0
  Br  Br48  1  0.28445000  0.93492000  0.85723000  1.0
  Br  Br49  1  0.42233000  0.57281000  0.35722000  1.0
  Br  Br50  1  0.21949000  0.26696000  0.76634000  1.0
  Br  Br51  1  0.99942000  0.54685000  0.26633000  1.0
  Br  Br52  1  0.37327000  0.96749000  0.59368000  1.0
  Br  Br53  1  0.12619000  0.22039000  0.09371000  1.0
  Br  Br54  1  0.68848000  0.27919000  0.94744000  1.0
  Br  Br55  1  0.16826000  0.25894000  0.44745000  1.0
  N  N56  1  0.80479000  0.89335000  0.90251000  1.0
  N  N57  1  0.50917000  0.09772000  0.40250000  1.0
  N  N58  1  0.91142000  0.87363000  0.87409000  1.0
  N  N59  1  0.50046000  0.96267000  0.37409000  1.0
  N  N60  1  0.85056000  0.03427000  0.80499000  1.0
  N  N61  1  0.27072000  0.95444000  0.30498000  1.0
  N  N62  1  0.88443000  0.34617000  0.72756000  1.0
  N  N63  1  0.88139000  0.84314000  0.22757000  1.0
  N  N64  1  0.78670000  0.24062000  0.62108000  1.0
  N  N65  1  0.88046000  0.83438000  0.12108000  1.0
  N  N66  1  0.84591000  0.13749000  0.75217000  1.0
  N  N67  1  0.11469000  0.90627000  0.25217000  1.0
  N  N68  1  0.50944000  0.69287000  0.80550000  1.0
  N  N69  1  0.61265000  0.29606000  0.30550000  1.0
  N  N70  1  0.52543000  0.68732000  0.70542000  1.0
  N  N71  1  0.51810000  0.17999000  0.20541000  1.0
  N  N72  1  0.28592000  0.62713000  0.66171000  1.0
  N  N73  1  0.53457000  0.37579000  0.16171000  1.0
  N  N74  1  0.89072000  0.44677000  0.52004000  1.0
  N  N75  1  0.57326000  0.62933000  0.02005000  1.0
  N  N76  1  0.90514000  0.58033000  0.51328000  1.0
  N  N77  1  0.43294000  0.60815000  0.01329000  1.0
  N  N78  1  0.13115000  0.58232000  0.60060000  1.0
  N  N79  1  0.51827000  0.46945000  0.10060000  1.0
  O  O80  1  0.75684000  0.57013000  0.87755000  1.0
  O  O81  1  0.80742000  0.12069000  0.37754000  1.0
  O  O82  1  0.61991000  0.93716000  0.02041000  1.0
  O  O83  1  0.58325000  0.40050000  0.52041000  1.0
  O  O84  1  0.50441000  0.35623000  0.68907000  1.0
  O  O85  1  0.83284000  0.18465000  0.18907000  1.0
