# generated using pymatgen
data_NdFeH20C17N7O6
_symmetry_space_group_name_H-M   'P 1'
_cell_length_a   10.84450000
_cell_length_b   12.72160000
_cell_length_c   18.23210000
_cell_angle_alpha   90.00020000
_cell_angle_beta   90.00010000
_cell_angle_gamma   102.72300000
_symmetry_Int_Tables_number   1
_chemical_formula_structural   NdFeH20C17N7O6
_chemical_formula_sum   'Nd4 Fe4 H80 C68 N28 O24'
_cell_volume   2453.52953677
_cell_formula_units_Z   4
loop_
 _symmetry_equiv_pos_site_id
 _symmetry_equiv_pos_as_xyz
  1  'x, y, z'
loop_
 _atom_site_type_symbol
 _atom_site_label
 _atom_site_symmetry_multiplicity
 _atom_site_fract_x
 _atom_site_fract_y
 _atom_site_fract_z
 _atom_site_occupancy
  Nd  Nd0  1  0.80128000  0.68217000  0.91407000  1.0
  Nd  Nd1  1  0.69871000  0.31783000  0.41407000  1.0
  Nd  Nd2  1  0.19872000  0.31783000  0.08593000  1.0
  Nd  Nd3  1  0.30128000  0.68217000  0.58593000  1.0
  Fe  Fe4  1  0.68764000  0.28974000  0.04488000  1.0
  Fe  Fe5  1  0.81236000  0.71026000  0.54488000  1.0
  Fe  Fe6  1  0.31237000  0.71027000  0.95512000  1.0
  Fe  Fe7  1  0.18763000  0.28974000  0.45512000  1.0
  H  H8  1  0.63487000  0.16383000  0.18980000  1.0
  H  H9  1  0.86513000  0.83617000  0.68979000  1.0
  H  H10  1  0.36515000  0.83618000  0.81021000  1.0
  H  H11  1  0.13486000  0.16383000  0.31021000  1.0
  H  H12  1  0.61553000  0.97357000  0.22586000  1.0
  H  H13  1  0.88449000  0.02643000  0.72585000  1.0
  H  H14  1  0.38450000  0.02644000  0.77415000  1.0
  H  H15  1  0.11551000  0.97357000  0.27415000  1.0
  H  H16  1  0.64113000  0.83732000  0.12766000  1.0
  H  H17  1  0.85888000  0.16269000  0.62765000  1.0
  H  H18  1  0.35889000  0.16269000  0.87235000  1.0
  H  H19  1  0.14112000  0.83732000  0.37235000  1.0
  H  H20  1  0.67100000  0.89921000  0.99911000  1.0
  H  H21  1  0.82899000  0.10079000  0.49910000  1.0
  H  H22  1  0.32901000  0.10079000  0.00090000  1.0
  H  H23  1  0.17099000  0.89921000  0.50090000  1.0
  H  H24  1  0.67250000  0.96115000  0.89197000  1.0
  H  H25  1  0.82749000  0.03885000  0.39197000  1.0
  H  H26  1  0.32751000  0.03885000  0.10803000  1.0
  H  H27  1  0.17249000  0.96115000  0.60803000  1.0
  H  H28  1  0.67718000  0.05011000  0.76910000  1.0
  H  H29  1  0.82284000  0.94988000  0.26910000  1.0
  H  H30  1  0.32284000  0.94989000  0.23090000  1.0
  H  H31  1  0.17718000  0.05012000  0.73090000  1.0
  H  H32  1  0.68852000  0.25034000  0.76495000  1.0
  H  H33  1  0.81149000  0.74966000  0.26495000  1.0
  H  H34  1  0.31147000  0.74966000  0.23505000  1.0
  H  H35  1  0.18855000  0.25035000  0.73504000  1.0
  H  H36  1  0.69041000  0.35059000  0.88261000  1.0
  H  H37  1  0.80959000  0.64941000  0.38260000  1.0
  H  H38  1  0.30958000  0.64942000  0.11740000  1.0
  H  H39  1  0.19042000  0.35059000  0.61739000  1.0
  H  H40  1  0.94547000  0.86042000  0.06398000  1.0
  H  H41  1  0.55452000  0.13958000  0.56399000  1.0
  H  H42  1  0.05453000  0.13959000  0.93601000  1.0
  H  H43  1  0.44547000  0.86042000  0.43601000  1.0
  H  H44  1  0.90109000  0.79243000  0.14844000  1.0
  H  H45  1  0.59891000  0.20757000  0.64845000  1.0
  H  H46  1  0.09891000  0.20757000  0.85155000  1.0
  H  H47  1  0.40109000  0.79243000  0.35155000  1.0
  H  H48  1  0.01163000  0.74842000  0.08807000  1.0
  H  H49  1  0.48837000  0.25159000  0.58807000  1.0
  H  H50  1  0.98838000  0.25159000  0.91193000  1.0
  H  H51  1  0.51162000  0.74841000  0.41193000  1.0
  H  H52  1  0.67802000  0.82320000  0.76552000  1.0
  H  H53  1  0.82198000  0.17679000  0.26553000  1.0
  H  H54  1  0.32198000  0.17680000  0.23447000  1.0
  H  H55  1  0.17802000  0.82320000  0.73448000  1.0
  H  H56  1  0.56409000  0.72068000  0.72066000  1.0
  H  H57  1  0.93591000  0.27931000  0.22066000  1.0
  H  H58  1  0.43591000  0.27931000  0.27934000  1.0
  H  H59  1  0.06409000  0.72069000  0.77934000  1.0
  H  H60  1  0.53693000  0.75730000  0.81279000  1.0
  H  H61  1  0.96307000  0.24270000  0.31280000  1.0
  H  H62  1  0.46307000  0.24270000  0.18720000  1.0
  H  H63  1  0.03693000  0.75730000  0.68720000  1.0
  H  H64  1  0.94608000  0.45901000  0.89717000  1.0
  H  H65  1  0.55392000  0.54100000  0.39717000  1.0
  H  H66  1  0.05392000  0.54100000  0.10284000  1.0
  H  H67  1  0.44607000  0.45900000  0.60283000  1.0
  H  H68  1  0.92592000  0.41025000  0.80478000  1.0
  H  H69  1  0.57408000  0.58975000  0.30478000  1.0
  H  H70  1  0.07408000  0.58975000  0.19523000  1.0
  H  H71  1  0.42591000  0.41025000  0.69522000  1.0
  H  H72  1  0.04849000  0.52597000  0.82675000  1.0
  H  H73  1  0.45150000  0.47403000  0.32675000  1.0
  H  H74  1  0.95150000  0.47403000  0.17325000  1.0
  H  H75  1  0.54849000  0.52597000  0.67325000  1.0
  H  H76  1  0.80555000  0.64041000  0.07109000  1.0
  H  H77  1  0.69445000  0.35958000  0.57109000  1.0
  H  H78  1  0.19445000  0.35959000  0.92891000  1.0
  H  H79  1  0.30555000  0.64041000  0.42891000  1.0
  H  H80  1  0.71231000  0.63769000  0.75939000  1.0
  H  H81  1  0.78768000  0.36230000  0.25939000  1.0
  H  H82  1  0.28768000  0.36230000  0.24061000  1.0
  H  H83  1  0.21231000  0.63769000  0.74061000  1.0
  H  H84  1  0.85081000  0.56201000  0.77386000  1.0
  H  H85  1  0.64918000  0.43799000  0.27386000  1.0
  H  H86  1  0.14919000  0.43799000  0.22614000  1.0
  H  H87  1  0.35081000  0.56201000  0.72614000  1.0
  C  C88  1  0.64299000  0.10350000  0.14886000  1.0
  C  C89  1  0.85701000  0.89651000  0.64885000  1.0
  C  C90  1  0.35703000  0.89651000  0.85114000  1.0
  C  C91  1  0.14298000  0.10350000  0.35114000  1.0
  C  C92  1  0.63415000  0.99644000  0.16869000  1.0
  C  C93  1  0.86586000  0.00357000  0.66868000  1.0
  C  C94  1  0.36587000  0.00357000  0.83132000  1.0
  C  C95  1  0.13415000  0.99643000  0.33132000  1.0
  C  C96  1  0.64648000  0.92181000  0.11463000  1.0
  C  C97  1  0.85353000  0.07819000  0.61462000  1.0
  C  C98  1  0.35353000  0.07819000  0.88537000  1.0
  C  C99  1  0.14648000  0.92181000  0.38538000  1.0
  C  C100  1  0.66338000  0.95636000  0.04224000  1.0
  C  C101  1  0.83661000  0.04364000  0.54223000  1.0
  C  C102  1  0.33662000  0.04364000  0.95777000  1.0
  C  C103  1  0.16338000  0.95636000  0.45776000  1.0
  C  C104  1  0.66839000  0.06444000  0.02563000  1.0
  C  C105  1  0.83161000  0.93556000  0.52563000  1.0
  C  C106  1  0.33163000  0.93556000  0.97437000  1.0
  C  C107  1  0.16837000  0.06444000  0.47437000  1.0
  C  C108  1  0.67818000  0.10862000  0.95130000  1.0
  C  C109  1  0.82181000  0.89138000  0.45129000  1.0
  C  C110  1  0.32182000  0.89138000  0.04871000  1.0
  C  C111  1  0.17818000  0.10862000  0.54870000  1.0
  C  C112  1  0.67758000  0.04727000  0.88756000  1.0
  C  C113  1  0.82242000  0.95272000  0.38756000  1.0
  C  C114  1  0.32243000  0.95272000  0.11243000  1.0
  C  C115  1  0.17757000  0.04727000  0.61244000  1.0
  C  C116  1  0.68104000  0.09697000  0.81941000  1.0
  C  C117  1  0.81897000  0.90304000  0.31941000  1.0
  C  C118  1  0.31897000  0.90304000  0.18059000  1.0
  C  C119  1  0.18104000  0.09697000  0.68059000  1.0
  C  C120  1  0.68603000  0.20752000  0.81691000  1.0
  C  C121  1  0.81397000  0.79247000  0.31691000  1.0
  C  C122  1  0.31397000  0.79248000  0.18309000  1.0
  C  C123  1  0.18604000  0.20753000  0.68309000  1.0
  C  C124  1  0.68672000  0.26434000  0.88212000  1.0
  C  C125  1  0.81328000  0.73565000  0.38211000  1.0
  C  C126  1  0.31327000  0.73565000  0.11788000  1.0
  C  C127  1  0.18672000  0.26435000  0.61788000  1.0
  C  C128  1  0.71883000  0.42506000  0.00641000  1.0
  C  C129  1  0.78117000  0.57494000  0.50641000  1.0
  C  C130  1  0.28118000  0.57495000  0.99359000  1.0
  C  C131  1  0.21882000  0.42506000  0.49359000  1.0
  C  C132  1  0.69342000  0.35360000  0.13554000  1.0
  C  C133  1  0.80658000  0.64641000  0.63554000  1.0
  C  C134  1  0.30659000  0.64641000  0.86446000  1.0
  C  C135  1  0.19341000  0.35359000  0.36446000  1.0
  C  C136  1  0.51305000  0.28305000  0.04425000  1.0
  C  C137  1  0.98696000  0.71695000  0.54425000  1.0
  C  C138  1  0.48696000  0.71695000  0.95575000  1.0
  C  C139  1  0.01304000  0.28305000  0.45575000  1.0
  C  C140  1  0.86300000  0.30001000  0.05219000  1.0
  C  C141  1  0.63699000  0.69998000  0.55219000  1.0
  C  C142  1  0.13700000  0.69999000  0.94781000  1.0
  C  C143  1  0.36299000  0.30001000  0.44781000  1.0
  C  C144  1  0.92651000  0.78181000  0.09098000  1.0
  C  C145  1  0.57349000  0.21819000  0.59098000  1.0
  C  C146  1  0.07350000  0.21819000  0.90902000  1.0
  C  C147  1  0.42650000  0.78181000  0.40902000  1.0
  C  C148  1  0.60891000  0.74645000  0.77342000  1.0
  C  C149  1  0.89109000  0.25354000  0.27343000  1.0
  C  C150  1  0.39109000  0.25354000  0.22657000  1.0
  C  C151  1  0.10891000  0.74645000  0.72658000  1.0
  C  C152  1  0.95140000  0.48280000  0.83926000  1.0
  C  C153  1  0.54859000  0.51720000  0.33927000  1.0
  C  C154  1  0.04859000  0.51720000  0.16074000  1.0
  C  C155  1  0.45140000  0.48280000  0.66074000  1.0
  N  N156  1  0.66098000  0.13776000  0.07907000  1.0
  N  N157  1  0.83903000  0.86224000  0.57907000  1.0
  N  N158  1  0.33903000  0.86225000  0.92093000  1.0
  N  N159  1  0.16097000  0.13775000  0.42093000  1.0
  N  N160  1  0.68310000  0.21654000  0.94828000  1.0
  N  N161  1  0.81690000  0.78346000  0.44828000  1.0
  N  N162  1  0.31691000  0.78346000  0.05172000  1.0
  N  N163  1  0.18309000  0.21654000  0.55172000  1.0
  N  N164  1  0.74198000  0.51341000  0.98202000  1.0
  N  N165  1  0.75802000  0.48659000  0.48202000  1.0
  N  N166  1  0.25802000  0.48659000  0.01799000  1.0
  N  N167  1  0.24198000  0.51342000  0.51798000  1.0
  N  N168  1  0.69970000  0.39932000  0.19249000  1.0
  N  N169  1  0.80029000  0.60069000  0.69249000  1.0
  N  N170  1  0.30030000  0.60069000  0.80751000  1.0
  N  N171  1  0.19970000  0.39931000  0.30750000  1.0
  N  N172  1  0.40333000  0.27815000  0.04808000  1.0
  N  N173  1  0.09667000  0.72185000  0.54808000  1.0
  N  N174  1  0.59668000  0.72186000  0.95192000  1.0
  N  N175  1  0.90332000  0.27814000  0.45193000  1.0
  N  N176  1  0.97230000  0.30524000  0.05858000  1.0
  N  N177  1  0.52770000  0.69476000  0.55858000  1.0
  N  N178  1  0.02771000  0.69477000  0.94141000  1.0
  N  N179  1  0.47230000  0.30523000  0.44142000  1.0
  N  N180  1  0.92267000  0.90412000  0.86293000  1.0
  N  N181  1  0.57732000  0.09588000  0.36293000  1.0
  N  N182  1  0.07732000  0.09588000  0.13707000  1.0
  N  N183  1  0.42267000  0.90412000  0.63707000  1.0
  O  O184  1  0.82189000  0.71433000  0.05274000  1.0
  O  O185  1  0.67811000  0.28567000  0.55275000  1.0
  O  O186  1  0.17811000  0.28568000  0.94725000  1.0
  O  O187  1  0.32189000  0.71432000  0.44726000  1.0
  O  O188  1  0.66905000  0.66482000  0.80200000  1.0
  O  O189  1  0.83094000  0.33518000  0.30200000  1.0
  O  O190  1  0.33095000  0.33518000  0.19800000  1.0
  O  O191  1  0.16905000  0.66482000  0.69800000  1.0
  O  O192  1  0.86292000  0.55036000  0.82786000  1.0
  O  O193  1  0.63707000  0.44964000  0.32786000  1.0
  O  O194  1  0.13707000  0.44963000  0.17214000  1.0
  O  O195  1  0.36292000  0.55036000  0.67214000  1.0
  O  O196  1  0.91169000  0.82227000  0.82015000  1.0
  O  O197  1  0.58829000  0.17772000  0.32016000  1.0
  O  O198  1  0.08830000  0.17773000  0.17984000  1.0
  O  O199  1  0.41169000  0.82228000  0.67984000  1.0
  O  O200  1  0.87439000  0.88571000  0.92756000  1.0
  O  O201  1  0.62560000  0.11429000  0.42756000  1.0
  O  O202  1  0.12561000  0.11429000  0.07244000  1.0
  O  O203  1  0.37439000  0.88571000  0.57244000  1.0
  O  O204  1  0.97554000  0.99567000  0.84280000  1.0
  O  O205  1  0.52446000  0.00432000  0.34280000  1.0
  O  O206  1  0.02446000  0.00433000  0.15720000  1.0
  O  O207  1  0.47554000  0.99567000  0.65720000  1.0
