# generated using pymatgen
data_AgH7C6SN2O4F3
_symmetry_space_group_name_H-M   'P 1'
_cell_length_a   6.03617000
_cell_length_b   9.58980000
_cell_length_c   10.65710000
_cell_angle_alpha   115.68400000
_cell_angle_beta   97.16790000
_cell_angle_gamma   91.90680000
_symmetry_Int_Tables_number   1
_chemical_formula_structural   AgH7C6SN2O4F3
_chemical_formula_sum   'Ag2 H14 C12 S2 N4 O8 F6'
_cell_volume   548.95968559
_cell_formula_units_Z   2
loop_
 _symmetry_equiv_pos_site_id
 _symmetry_equiv_pos_as_xyz
  1  'x, y, z'
loop_
 _atom_site_type_symbol
 _atom_site_label
 _atom_site_symmetry_multiplicity
 _atom_site_fract_x
 _atom_site_fract_y
 _atom_site_fract_z
 _atom_site_occupancy
  Ag  Ag0  1  0.78336000  0.74800000  0.56089000  1.0
  Ag  Ag1  1  0.21665000  0.25200000  0.43912000  1.0
  H  H2  1  0.20911000  0.46568000  0.16119000  1.0
  H  H3  1  0.79089000  0.53432000  0.83882000  1.0
  H  H4  1  0.19945000  0.15577000  0.09900000  1.0
  H  H5  1  0.80056000  0.84423000  0.90101000  1.0
  H  H6  1  0.86539000  0.10240000  0.22825000  1.0
  H  H7  1  0.13462000  0.89759000  0.77175000  1.0
  H  H8  1  0.58668000  0.26866000  0.38421000  1.0
  H  H9  1  0.41332000  0.73133000  0.61578000  1.0
  H  H10  1  0.92765000  0.58156000  0.31552000  1.0
  H  H11  1  0.07235000  0.41844000  0.68447000  1.0
  H  H12  1  0.89692000  0.86253000  0.36861000  1.0
  H  H13  1  0.10308000  0.13746000  0.63139000  1.0
  H  H14  1  0.13745000  0.81127000  0.40487000  1.0
  H  H15  1  0.86255000  0.18872000  0.59513000  1.0
  C  C16  1  0.10541000  0.39750000  0.19445000  1.0
  C  C17  1  0.89460000  0.60251000  0.80555000  1.0
  C  C18  1  0.09891000  0.24077000  0.16539000  1.0
  C  C19  1  0.90109000  0.75924000  0.83462000  1.0
  C  C20  1  0.93155000  0.21323000  0.23628000  1.0
  C  C21  1  0.06844000  0.78676000  0.76372000  1.0
  C  C22  1  0.83907000  0.35606000  0.30705000  1.0
  C  C23  1  0.16093000  0.64393000  0.69294000  1.0
  C  C24  1  0.66436000  0.37697000  0.38928000  1.0
  C  C25  1  0.33565000  0.62303000  0.61071000  1.0
  C  C26  1  0.54007000  0.24345000  0.89699000  1.0
  C  C27  1  0.45993000  0.75656000  0.10301000  1.0
  S  S28  1  0.53435000  0.10796000  0.70729000  1.0
  S  S29  1  0.46565000  0.89203000  0.29272000  1.0
  N  N30  1  0.59087000  0.50847000  0.46912000  1.0
  N  N31  1  0.40913000  0.49154000  0.53088000  1.0
  N  N32  1  0.95008000  0.46477000  0.27864000  1.0
  N  N33  1  0.04993000  0.53523000  0.72136000  1.0
  O  O34  1  0.71745000  0.01345000  0.71152000  1.0
  O  O35  1  0.28255000  0.98655000  0.28849000  1.0
  O  O36  1  0.30891000  0.02594000  0.66587000  1.0
  O  O37  1  0.69108000  0.97406000  0.33413000  1.0
  O  O38  1  0.57336000  0.21032000  0.64104000  1.0
  O  O39  1  0.42664000  0.78968000  0.35897000  1.0
  O  O40  1  0.97422000  0.78761000  0.39523000  1.0
  O  O41  1  0.02578000  0.21239000  0.60476000  1.0
  F  F42  1  0.36560000  0.33238000  0.91321000  1.0
  F  F43  1  0.63440000  0.66763000  0.08679000  1.0
  F  F44  1  0.73321000  0.33877000  0.94980000  1.0
  F  F45  1  0.26678000  0.66122000  0.05021000  1.0
  F  F46  1  0.52302000  0.16215000  0.97326000  1.0
  F  F47  1  0.47695000  0.83786000  0.02674000  1.0
