# generated using pymatgen
data_Ag2H20C23S3N4(OF)6
_symmetry_space_group_name_H-M   'P 1'
_cell_length_a   14.83070000
_cell_length_b   14.83070000
_cell_length_c   18.21790000
_cell_angle_alpha   77.10490000
_cell_angle_beta   77.10490000
_cell_angle_gamma   64.32530000
_symmetry_Int_Tables_number   1
_chemical_formula_structural   Ag2H20C23S3N4(OF)6
_chemical_formula_sum   'Ag8 H80 C92 S12 N16 O24 F24'
_cell_volume   3483.65186694
_cell_formula_units_Z   4
loop_
 _symmetry_equiv_pos_site_id
 _symmetry_equiv_pos_as_xyz
  1  'x, y, z'
loop_
 _atom_site_type_symbol
 _atom_site_label
 _atom_site_symmetry_multiplicity
 _atom_site_fract_x
 _atom_site_fract_y
 _atom_site_fract_z
 _atom_site_occupancy
  Ag  Ag0  1  0.33151000  0.06293000  0.74674000  1.0
  Ag  Ag1  1  0.93707000  0.66848000  0.75326000  1.0
  Ag  Ag2  1  0.66848000  0.93707000  0.25327000  1.0
  Ag  Ag3  1  0.06293000  0.33151000  0.24674000  1.0
  Ag  Ag4  1  0.52670000  0.02622000  0.63373000  1.0
  Ag  Ag5  1  0.97379000  0.47328000  0.86627000  1.0
  Ag  Ag6  1  0.47329000  0.97378000  0.36627000  1.0
  Ag  Ag7  1  0.02622000  0.52671000  0.13373000  1.0
  H  H8  1  0.49094000  0.17358000  0.75203000  1.0
  H  H9  1  0.82642000  0.50905000  0.74797000  1.0
  H  H10  1  0.50905000  0.82641000  0.24796000  1.0
  H  H11  1  0.17359000  0.49095000  0.25203000  1.0
  H  H12  1  0.54569000  0.11402000  0.89628000  1.0
  H  H13  1  0.88598000  0.45431000  0.60372000  1.0
  H  H14  1  0.45431000  0.88598000  0.10372000  1.0
  H  H15  1  0.11403000  0.54569000  0.39628000  1.0
  H  H16  1  0.80529000  0.91025000  0.85043000  1.0
  H  H17  1  0.08975000  0.19471000  0.64957000  1.0
  H  H18  1  0.19472000  0.08975000  0.14956000  1.0
  H  H19  1  0.91026000  0.80528000  0.35044000  1.0
  H  H20  1  0.48705000  0.69578000  0.90374000  1.0
  H  H21  1  0.30423000  0.51295000  0.59627000  1.0
  H  H22  1  0.51295000  0.30422000  0.09627000  1.0
  H  H23  1  0.69578000  0.48705000  0.40374000  1.0
  H  H24  1  0.74451000  0.09242000  0.58953000  1.0
  H  H25  1  0.90758000  0.25548000  0.91046000  1.0
  H  H26  1  0.25547000  0.90757000  0.41045000  1.0
  H  H27  1  0.09241000  0.74454000  0.08953000  1.0
  H  H28  1  0.53716000  0.76317000  0.57617000  1.0
  H  H29  1  0.23684000  0.46283000  0.92383000  1.0
  H  H30  1  0.46283000  0.23684000  0.42382000  1.0
  H  H31  1  0.76317000  0.53717000  0.07617000  1.0
  H  H32  1  0.58842000  0.78871000  0.85222000  1.0
  H  H33  1  0.21129000  0.41159000  0.64778000  1.0
  H  H34  1  0.41159000  0.21129000  0.14778000  1.0
  H  H35  1  0.78871000  0.58841000  0.35222000  1.0
  H  H36  1  0.45221000  0.82911000  0.69817000  1.0
  H  H37  1  0.17089000  0.54779000  0.80183000  1.0
  H  H38  1  0.54779000  0.17089000  0.30183000  1.0
  H  H39  1  0.82912000  0.45221000  0.19817000  1.0
  H  H40  1  0.74207000  0.92301000  0.62688000  1.0
  H  H41  1  0.07699000  0.25792000  0.87311000  1.0
  H  H42  1  0.25792000  0.07699000  0.37311000  1.0
  H  H43  1  0.92300000  0.74209000  0.12689000  1.0
  H  H44  1  0.28386000  0.73744000  0.91893000  1.0
  H  H45  1  0.26257000  0.71614000  0.58108000  1.0
  H  H46  1  0.71615000  0.26256000  0.08108000  1.0
  H  H47  1  0.73744000  0.28386000  0.41893000  1.0
  H  H48  1  0.53856000  0.85276000  0.97070000  1.0
  H  H49  1  0.14723000  0.46145000  0.52930000  1.0
  H  H50  1  0.46145000  0.14724000  0.02930000  1.0
  H  H51  1  0.85276000  0.53855000  0.47070000  1.0
  H  H52  1  0.59117000  0.93078000  0.99078000  1.0
  H  H53  1  0.06922000  0.40884000  0.50922000  1.0
  H  H54  1  0.40883000  0.06923000  0.00922000  1.0
  H  H55  1  0.93078000  0.59116000  0.49078000  1.0
  H  H56  1  0.66468000  0.83461000  0.93271000  1.0
  H  H57  1  0.16538000  0.33533000  0.56729000  1.0
  H  H58  1  0.33533000  0.16539000  0.06729000  1.0
  H  H59  1  0.83461000  0.66466000  0.43271000  1.0
  H  H60  1  0.77757000  0.17268000  0.68096000  1.0
  H  H61  1  0.82732000  0.22243000  0.81903000  1.0
  H  H62  1  0.22242000  0.82732000  0.31902000  1.0
  H  H63  1  0.17266000  0.77760000  0.18096000  1.0
  H  H64  1  0.81286000  0.07850000  0.81089000  1.0
  H  H65  1  0.92150000  0.18714000  0.68910000  1.0
  H  H66  1  0.18715000  0.92150000  0.18909000  1.0
  H  H67  1  0.07850000  0.81287000  0.31089000  1.0
  H  H68  1  0.72240000  0.70362000  0.54220000  1.0
  H  H69  1  0.29639000  0.27758000  0.95780000  1.0
  H  H70  1  0.27759000  0.29638000  0.45780000  1.0
  H  H71  1  0.70362000  0.72241000  0.04220000  1.0
  H  H72  1  0.82474000  0.71485000  0.62938000  1.0
  H  H73  1  0.28515000  0.17525000  0.87062000  1.0
  H  H74  1  0.17526000  0.28514000  0.37063000  1.0
  H  H75  1  0.71486000  0.82474000  0.12939000  1.0
  H  H76  1  0.16475000  0.01823000  0.80083000  1.0
  H  H77  1  0.98177000  0.83524000  0.69916000  1.0
  H  H78  1  0.83524000  0.98176000  0.19917000  1.0
  H  H79  1  0.01823000  0.16476000  0.30083000  1.0
  H  H80  1  0.12521000  0.95732000  0.88979000  1.0
  H  H81  1  0.04268000  0.87478000  0.61020000  1.0
  H  H82  1  0.87478000  0.04267000  0.11021000  1.0
  H  H83  1  0.95732000  0.12522000  0.38979000  1.0
  H  H84  1  0.14479000  0.90728000  0.80531000  1.0
  H  H85  1  0.09271000  0.85522000  0.69468000  1.0
  H  H86  1  0.85522000  0.09271000  0.19468000  1.0
  H  H87  1  0.90728000  0.14479000  0.30531000  1.0
  C  C88  1  0.58962000  0.81173000  0.73256000  1.0
  C  C89  1  0.18828000  0.41038000  0.76744000  1.0
  C  C90  1  0.41038000  0.18828000  0.26744000  1.0
  C  C91  1  0.81172000  0.58962000  0.23256000  1.0
  C  C92  1  0.51109000  0.10016000  0.78746000  1.0
  C  C93  1  0.89984000  0.48890000  0.71254000  1.0
  C  C94  1  0.48891000  0.89984000  0.21254000  1.0
  C  C95  1  0.10016000  0.51109000  0.28746000  1.0
  C  C96  1  0.53773000  0.06887000  0.86088000  1.0
  C  C97  1  0.93113000  0.46226000  0.63912000  1.0
  C  C98  1  0.46227000  0.93113000  0.13911000  1.0
  C  C99  1  0.06887000  0.53773000  0.36088000  1.0
  C  C100  1  0.79214000  0.95070000  0.79335000  1.0
  C  C101  1  0.04930000  0.20786000  0.70664000  1.0
  C  C102  1  0.20787000  0.04930000  0.20663000  1.0
  C  C103  1  0.95070000  0.79214000  0.29336000  1.0
  C  C104  1  0.42522000  0.76081000  0.88044000  1.0
  C  C105  1  0.23920000  0.57478000  0.61957000  1.0
  C  C106  1  0.57479000  0.23919000  0.11957000  1.0
  C  C107  1  0.76081000  0.42522000  0.38044000  1.0
  C  C108  1  0.75825000  0.05290000  0.64658000  1.0
  C  C109  1  0.94710000  0.24175000  0.85342000  1.0
  C  C110  1  0.24175000  0.94709000  0.35341000  1.0
  C  C111  1  0.05289000  0.75827000  0.14658000  1.0
  C  C112  1  0.58164000  0.76614000  0.61494000  1.0
  C  C113  1  0.23387000  0.41836000  0.88505000  1.0
  C  C114  1  0.41836000  0.23387000  0.38505000  1.0
  C  C115  1  0.76614000  0.58164000  0.11495000  1.0
  C  C116  1  0.54101000  0.84434000  0.81029000  1.0
  C  C117  1  0.15566000  0.45899000  0.68971000  1.0
  C  C118  1  0.45899000  0.15566000  0.18971000  1.0
  C  C119  1  0.84435000  0.54101000  0.31030000  1.0
  C  C120  1  0.53376000  0.80477000  0.68318000  1.0
  C  C121  1  0.19523000  0.46623000  0.81682000  1.0
  C  C122  1  0.46624000  0.19523000  0.31682000  1.0
  C  C123  1  0.80477000  0.53377000  0.18318000  1.0
  C  C124  1  0.77132000  0.90762000  0.74166000  1.0
  C  C125  1  0.09238000  0.22868000  0.75834000  1.0
  C  C126  1  0.22868000  0.09238000  0.25833000  1.0
  C  C127  1  0.90762000  0.77132000  0.24166000  1.0
  C  C128  1  0.75589000  0.95737000  0.66782000  1.0
  C  C129  1  0.04262000  0.24411000  0.83217000  1.0
  C  C130  1  0.24411000  0.04262000  0.33216000  1.0
  C  C131  1  0.95736000  0.75590000  0.16783000  1.0
  C  C132  1  0.28100000  0.88108000  0.84492000  1.0
  C  C133  1  0.11893000  0.71900000  0.65508000  1.0
  C  C134  1  0.71900000  0.11892000  0.15509000  1.0
  C  C135  1  0.88108000  0.28100000  0.34492000  1.0
  C  C136  1  0.52632000  0.34032000  0.55347000  1.0
  C  C137  1  0.65968000  0.47369000  0.94653000  1.0
  C  C138  1  0.47368000  0.65969000  0.44653000  1.0
  C  C139  1  0.34032000  0.52631000  0.05349000  1.0
  C  C140  1  0.55458000  0.96717000  0.87874000  1.0
  C  C141  1  0.03283000  0.44542000  0.62126000  1.0
  C  C142  1  0.44542000  0.03283000  0.12125000  1.0
  C  C143  1  0.96717000  0.55458000  0.37875000  1.0
  C  C144  1  0.32307000  0.78413000  0.88719000  1.0
  C  C145  1  0.21588000  0.67693000  0.61281000  1.0
  C  C146  1  0.67694000  0.21587000  0.11281000  1.0
  C  C147  1  0.78413000  0.32307000  0.38719000  1.0
  C  C148  1  0.58849000  0.89260000  0.94689000  1.0
  C  C149  1  0.10739000  0.41152000  0.55311000  1.0
  C  C150  1  0.41152000  0.10740000  0.05311000  1.0
  C  C151  1  0.89261000  0.58848000  0.44689000  1.0
  C  C152  1  0.77763000  0.09734000  0.69786000  1.0
  C  C153  1  0.90265000  0.22237000  0.80213000  1.0
  C  C154  1  0.22237000  0.90265000  0.30212000  1.0
  C  C155  1  0.09733000  0.77765000  0.19786000  1.0
  C  C156  1  0.24652000  0.95372000  0.58394000  1.0
  C  C157  1  0.04628000  0.75346000  0.91605000  1.0
  C  C158  1  0.75347000  0.04628000  0.41606000  1.0
  C  C159  1  0.95374000  0.24652000  0.08395000  1.0
  C  C160  1  0.79612000  0.04533000  0.77067000  1.0
  C  C161  1  0.95467000  0.20388000  0.72932000  1.0
  C  C162  1  0.20388000  0.95467000  0.22931000  1.0
  C  C163  1  0.04532000  0.79613000  0.27067000  1.0
  C  C164  1  0.69526000  0.77922000  0.71209000  1.0
  C  C165  1  0.22078000  0.30474000  0.78791000  1.0
  C  C166  1  0.30474000  0.22078000  0.28791000  1.0
  C  C167  1  0.77922000  0.69526000  0.21210000  1.0
  C  C168  1  0.68607000  0.73306000  0.59567000  1.0
  C  C169  1  0.26695000  0.31392000  0.90433000  1.0
  C  C170  1  0.31393000  0.26694000  0.40433000  1.0
  C  C171  1  0.73306000  0.68608000  0.09567000  1.0
  C  C172  1  0.74292000  0.73973000  0.64417000  1.0
  C  C173  1  0.26028000  0.25707000  0.85584000  1.0
  C  C174  1  0.25708000  0.26027000  0.35584000  1.0
  C  C175  1  0.73973000  0.74292000  0.14417000  1.0
  C  C176  1  0.17347000  0.94447000  0.83455000  1.0
  C  C177  1  0.05552000  0.82654000  0.66544000  1.0
  C  C178  1  0.82654000  0.05552000  0.16545000  1.0
  C  C179  1  0.94448000  0.17347000  0.33456000  1.0
  S  S180  1  0.76583000  0.78679000  0.77593000  1.0
  S  S181  1  0.21321000  0.23416000  0.72407000  1.0
  S  S182  1  0.23417000  0.21321000  0.22407000  1.0
  S  S183  1  0.78678000  0.76584000  0.27594000  1.0
  S  S184  1  0.30392000  0.04835000  0.55063000  1.0
  S  S185  1  0.95164000  0.69607000  0.94937000  1.0
  S  S186  1  0.69607000  0.95165000  0.44938000  1.0
  S  S187  1  0.04835000  0.30392000  0.05063000  1.0
  S  S188  1  0.42661000  0.28927000  0.58541000  1.0
  S  S189  1  0.71074000  0.57338000  0.91459000  1.0
  S  S190  1  0.57338000  0.71074000  0.41460000  1.0
  S  S191  1  0.28927000  0.42661000  0.08541000  1.0
  N  N192  1  0.35456000  0.91416000  0.81321000  1.0
  N  N193  1  0.08584000  0.64545000  0.68678000  1.0
  N  N194  1  0.64544000  0.08583000  0.18679000  1.0
  N  N195  1  0.91416000  0.35456000  0.31322000  1.0
  N  N196  1  0.44183000  0.84055000  0.83612000  1.0
  N  N197  1  0.15946000  0.55817000  0.66388000  1.0
  N  N198  1  0.55817000  0.15945000  0.16388000  1.0
  N  N199  1  0.84054000  0.44183000  0.33612000  1.0
  N  N200  1  0.51075000  0.02285000  0.76041000  1.0
  N  N201  1  0.97715000  0.48924000  0.73960000  1.0
  N  N202  1  0.48925000  0.97714000  0.23959000  1.0
  N  N203  1  0.02286000  0.51075000  0.26041000  1.0
  N  N204  1  0.53810000  0.94173000  0.81672000  1.0
  N  N205  1  0.05826000  0.46190000  0.68328000  1.0
  N  N206  1  0.46190000  0.05827000  0.18328000  1.0
  N  N207  1  0.94174000  0.53810000  0.31672000  1.0
  O  O208  1  0.34260000  0.36382000  0.54646000  1.0
  O  O209  1  0.63619000  0.65741000  0.95353000  1.0
  O  O210  1  0.65740000  0.63618000  0.45354000  1.0
  O  O211  1  0.36382000  0.34260000  0.04646000  1.0
  O  O212  1  0.21861000  0.14527000  0.55549000  1.0
  O  O213  1  0.85472000  0.78139000  0.94452000  1.0
  O  O214  1  0.78139000  0.85473000  0.44452000  1.0
  O  O215  1  0.14528000  0.21862000  0.05549000  1.0
  O  O216  1  0.40871000  0.28502000  0.66789000  1.0
  O  O217  1  0.71499000  0.59128000  0.83211000  1.0
  O  O218  1  0.59128000  0.71499000  0.33211000  1.0
  O  O219  1  0.28501000  0.40870000  0.16790000  1.0
  O  O220  1  0.37307000  0.01785000  0.60661000  1.0
  O  O221  1  0.98214000  0.62693000  0.89339000  1.0
  O  O222  1  0.62693000  0.98214000  0.39339000  1.0
  O  O223  1  0.01785000  0.37307000  0.10661000  1.0
  O  O224  1  0.47524000  0.19095000  0.55786000  1.0
  O  O225  1  0.80906000  0.52476000  0.94214000  1.0
  O  O226  1  0.52477000  0.80906000  0.44214000  1.0
  O  O227  1  0.19094000  0.47524000  0.05786000  1.0
  O  O228  1  0.35344000  0.02834000  0.47378000  1.0
  O  O229  1  0.97165000  0.64655000  0.02622000  1.0
  O  O230  1  0.64655000  0.97166000  0.52622000  1.0
  O  O231  1  0.02834000  0.35344000  0.97378000  1.0
  F  F232  1  0.17967000  0.96565000  0.53844000  1.0
  F  F233  1  0.03435000  0.82032000  0.96155000  1.0
  F  F234  1  0.82032000  0.03435000  0.46156000  1.0
  F  F235  1  0.96567000  0.17966000  0.03845000  1.0
  F  F236  1  0.49453000  0.43214000  0.57561000  1.0
  F  F237  1  0.56785000  0.50549000  0.92440000  1.0
  F  F238  1  0.50547000  0.56787000  0.42439000  1.0
  F  F239  1  0.43214000  0.49451000  0.07562000  1.0
  F  F240  1  0.61249000  0.27760000  0.58354000  1.0
  F  F241  1  0.72238000  0.38752000  0.91645000  1.0
  F  F242  1  0.38750000  0.72241000  0.41646000  1.0
  F  F243  1  0.27761000  0.61248000  0.08357000  1.0
  F  F244  1  0.55004000  0.35077000  0.47644000  1.0
  F  F245  1  0.64924000  0.44995000  0.02356000  1.0
  F  F246  1  0.44995000  0.64923000  0.52356000  1.0
  F  F247  1  0.35076000  0.55006000  0.97646000  1.0
  F  F248  1  0.19581000  0.96418000  0.65587000  1.0
  F  F249  1  0.03582000  0.80417000  0.84412000  1.0
  F  F250  1  0.80418000  0.03581000  0.34413000  1.0
  F  F251  1  0.96419000  0.19581000  0.15588000  1.0
  F  F252  1  0.31836000  0.85776000  0.58510000  1.0
  F  F253  1  0.14224000  0.68162000  0.91489000  1.0
  F  F254  1  0.68163000  0.14225000  0.41489000  1.0
  F  F255  1  0.85776000  0.31836000  0.08511000  1.0
