# generated using pymatgen
data_ZnH23C26NO8
_symmetry_space_group_name_H-M   'P 1'
_cell_length_a   11.00810000
_cell_length_b   16.57510000
_cell_length_c   17.80480000
_cell_angle_alpha   89.99860000
_cell_angle_beta   92.21690000
_cell_angle_gamma   89.99510000
_symmetry_Int_Tables_number   1
_chemical_formula_structural   ZnH23C26NO8
_chemical_formula_sum   'Zn2 H46 C52 N2 O16'
_cell_volume   3246.23870747
_cell_formula_units_Z   2
loop_
 _symmetry_equiv_pos_site_id
 _symmetry_equiv_pos_as_xyz
  1  'x, y, z'
loop_
 _atom_site_type_symbol
 _atom_site_label
 _atom_site_symmetry_multiplicity
 _atom_site_fract_x
 _atom_site_fract_y
 _atom_site_fract_z
 _atom_site_occupancy
  Zn  Zn0  1  0.50002000  0.42073000  0.50001000  1.0
  Zn  Zn1  1  0.50000000  0.59021000  0.50001000  1.0
  H  H2  1  0.11408000  0.62925000  0.49877000  1.0
  H  H3  1  0.50688000  0.37866000  0.27122000  1.0
  H  H4  1  0.47595000  0.62637000  0.88441000  1.0
  H  H5  1  0.52375000  0.62635000  0.11560000  1.0
  H  H6  1  0.37985000  0.13597000  0.40088000  1.0
  H  H7  1  0.62017000  0.13596000  0.59915000  1.0
  H  H8  1  0.20720000  0.21299000  0.52277000  1.0
  H  H9  1  0.79290000  0.21298000  0.47737000  1.0
  H  H10  1  0.50381000  0.35761000  0.92777000  1.0
  H  H11  1  0.49579000  0.35759000  0.07228000  1.0
  H  H12  1  0.37413000  0.75714000  0.72704000  1.0
  H  H13  1  0.88591000  0.62925000  0.50124000  1.0
  H  H14  1  0.32632000  0.69595000  0.80269000  1.0
  H  H15  1  0.29229000  0.65051000  0.63550000  1.0
  H  H16  1  0.23718000  0.59588000  0.71186000  1.0
  H  H17  1  0.10410000  0.71529000  0.74554000  1.0
  H  H18  1  0.07118000  0.68043000  0.65271000  1.0
  H  H19  1  0.15919000  0.76913000  0.66760000  1.0
  H  H20  1  0.62590000  0.75709000  0.27294000  1.0
  H  H21  1  0.67366000  0.69587000  0.19731000  1.0
  H  H22  1  0.70773000  0.65046000  0.36451000  1.0
  H  H23  1  0.76273000  0.59577000  0.28814000  1.0
  H  H24  1  0.46164000  0.86939000  0.37984000  1.0
  H  H25  1  0.89590000  0.71509000  0.25438000  1.0
  H  H26  1  0.92886000  0.68023000  0.34723000  1.0
  H  H27  1  0.84094000  0.76899000  0.33234000  1.0
  H  H28  1  0.22119000  0.23268000  0.37981000  1.0
  H  H29  1  0.32356000  0.22890000  0.30383000  1.0
  H  H30  1  0.20595000  0.38549000  0.35466000  1.0
  H  H31  1  0.27600000  0.36817000  0.26849000  1.0
  H  H32  1  0.10381000  0.26907000  0.23153000  1.0
  H  H33  1  0.05014000  0.36825000  0.24764000  1.0
  H  H34  1  0.03441000  0.29306000  0.31745000  1.0
  H  H35  1  0.53847000  0.86935000  0.62020000  1.0
  H  H36  1  0.77876000  0.23262000  0.62026000  1.0
  H  H37  1  0.67635000  0.22892000  0.69621000  1.0
  H  H38  1  0.79419000  0.38541000  0.64535000  1.0
  H  H39  1  0.72397000  0.36821000  0.73148000  1.0
  H  H40  1  0.89595000  0.26902000  0.76862000  1.0
  H  H41  1  0.94982000  0.36811000  0.75245000  1.0
  H  H42  1  0.96552000  0.29283000  0.68272000  1.0
  H  H43  1  0.46479000  0.71710000  0.38492000  1.0
  H  H44  1  0.53525000  0.71706000  0.61509000  1.0
  H  H45  1  0.22494000  0.34972000  0.51361000  1.0
  H  H46  1  0.77514000  0.34972000  0.48645000  1.0
  H  H47  1  0.49301000  0.37868000  0.72883000  1.0
  C  C48  1  0.51131000  0.50802000  0.35611000  1.0
  C  C49  1  0.51093000  0.49629000  0.11362000  1.0
  C  C50  1  0.49588000  0.49088000  0.96557000  1.0
  C  C51  1  0.50363000  0.49088000  0.03446000  1.0
  C  C52  1  0.43171000  0.16802000  0.44456000  1.0
  C  C53  1  0.56831000  0.16802000  0.55546000  1.0
  C  C54  1  0.43605000  0.25244000  0.44618000  1.0
  C  C55  1  0.56397000  0.25244000  0.55384000  1.0
  C  C56  1  0.50002000  0.12563000  0.50001000  1.0
  C  C57  1  0.50003000  0.04025000  0.50001000  1.0
  C  C58  1  0.50004000  0.96675000  0.50002000  1.0
  C  C59  1  0.48867000  0.50803000  0.64391000  1.0
  C  C60  1  0.26464000  0.50781000  0.49647000  1.0
  C  C61  1  0.73537000  0.50781000  0.50355000  1.0
  C  C62  1  0.47865000  0.83785000  0.43285000  1.0
  C  C63  1  0.52144000  0.83783000  0.56717000  1.0
  C  C64  1  0.47981000  0.75416000  0.43522000  1.0
  C  C65  1  0.52025000  0.75414000  0.56479000  1.0
  C  C66  1  0.50005000  0.88143000  0.50002000  1.0
  C  C67  1  0.12614000  0.34987000  0.50808000  1.0
  C  C68  1  0.87393000  0.34987000  0.49197000  1.0
  C  C69  1  0.06432000  0.27769000  0.50567000  1.0
  C  C70  1  0.48475000  0.50786000  0.72806000  1.0
  C  C71  1  0.93577000  0.27769000  0.49441000  1.0
  C  C72  1  0.93437000  0.42554000  0.49817000  1.0
  C  C73  1  0.06567000  0.42554000  0.50187000  1.0
  C  C74  1  0.12901000  0.50111000  0.50030000  1.0
  C  C75  1  0.87101000  0.50112000  0.49973000  1.0
  C  C76  1  0.06353000  0.57275000  0.49969000  1.0
  C  C77  1  0.93647000  0.57275000  0.50033000  1.0
  C  C78  1  0.49306000  0.42584000  0.84156000  1.0
  C  C79  1  0.50668000  0.42582000  0.15848000  1.0
  C  C80  1  0.49052000  0.43253000  0.76379000  1.0
  C  C81  1  0.51520000  0.50784000  0.27197000  1.0
  C  C82  1  0.50935000  0.43252000  0.23625000  1.0
  C  C83  1  0.35548000  0.69461000  0.74394000  1.0
  C  C84  1  0.25751000  0.65727000  0.69222000  1.0
  C  C85  1  0.14169000  0.70829000  0.68952000  1.0
  C  C86  1  0.64450000  0.69455000  0.25606000  1.0
  C  C87  1  0.74247000  0.65718000  0.30777000  1.0
  C  C88  1  0.85834000  0.70813000  0.31042000  1.0
  C  C89  1  0.28348000  0.26852000  0.34610000  1.0
  C  C90  1  0.21807000  0.34040000  0.31033000  1.0
  C  C91  1  0.09503000  0.31607000  0.27467000  1.0
  C  C92  1  0.47748000  0.57851000  0.77230000  1.0
  C  C93  1  0.71647000  0.26850000  0.65395000  1.0
  C  C94  1  0.78193000  0.34036000  0.68970000  1.0
  C  C95  1  0.90488000  0.31595000  0.72546000  1.0
  C  C96  1  0.52241000  0.57850000  0.22772000  1.0
  C  C97  1  0.47955000  0.57187000  0.85033000  1.0
  C  C98  1  0.52021000  0.57185000  0.14969000  1.0
  C  C99  1  0.48874000  0.49630000  0.88641000  1.0
  N  N100  1  0.50001000  0.29373000  0.50000000  1.0
  N  N101  1  0.50001000  0.71354000  0.50001000  1.0
  O  O102  1  0.54442000  0.44318000  0.38928000  1.0
  O  O103  1  0.87943000  0.20384000  0.48792000  1.0
  O  O104  1  0.50117000  0.35060000  0.87319000  1.0
  O  O105  1  0.49852000  0.35059000  0.12685000  1.0
  O  O106  1  0.47178000  0.65448000  0.74050000  1.0
  O  O107  1  0.52820000  0.65446000  0.25951000  1.0
  O  O108  1  0.37973000  0.30033000  0.39572000  1.0
  O  O109  1  0.62028000  0.30033000  0.60430000  1.0
  O  O110  1  0.45560000  0.44319000  0.61075000  1.0
  O  O111  1  0.47303000  0.57147000  0.38774000  1.0
  O  O112  1  0.52696000  0.57148000  0.61229000  1.0
  O  O113  1  0.32228000  0.44641000  0.47319000  1.0
  O  O114  1  0.67775000  0.44642000  0.52682000  1.0
  O  O115  1  0.31347000  0.57494000  0.51474000  1.0
  O  O116  1  0.68654000  0.57495000  0.48527000  1.0
  O  O117  1  0.12068000  0.20384000  0.51219000  1.0
