# generated using pymatgen
data_MnH2C6SO4
_symmetry_space_group_name_H-M   'P 1'
_cell_length_a   4.59880000
_cell_length_b   6.08634000
_cell_length_c   13.33160000
_cell_angle_alpha   86.62150000
_cell_angle_beta   80.09070000
_cell_angle_gamma   70.21490000
_symmetry_Int_Tables_number   1
_chemical_formula_structural   MnH2C6SO4
_chemical_formula_sum   'Mn2 H4 C12 S2 O8'
_cell_volume   345.88382083
_cell_formula_units_Z   2
loop_
 _symmetry_equiv_pos_site_id
 _symmetry_equiv_pos_as_xyz
  1  'x, y, z'
loop_
 _atom_site_type_symbol
 _atom_site_label
 _atom_site_symmetry_multiplicity
 _atom_site_fract_x
 _atom_site_fract_y
 _atom_site_fract_z
 _atom_site_occupancy
  Mn  Mn0  1  0.77720000  0.75022000  0.44548000  1.0
  Mn  Mn1  1  0.22282000  0.24976000  0.55452000  1.0
  H  H2  1  0.34021000  0.47165000  0.85666000  1.0
  H  H3  1  0.80199000  0.02782000  0.85682000  1.0
  H  H4  1  0.65978000  0.52836000  0.14333000  1.0
  H  H5  1  0.19798000  0.97219000  0.14318000  1.0
  C  C6  1  0.45563000  0.60025000  0.83571000  1.0
  C  C7  1  0.70792000  0.89901000  0.83582000  1.0
  C  C8  1  0.54436000  0.39974000  0.16429000  1.0
  C  C9  1  0.29205000  0.10100000  0.16418000  1.0
  C  C10  1  0.55871000  0.66154000  0.73832000  1.0
  C  C11  1  0.70368000  0.83728000  0.73839000  1.0
  C  C12  1  0.44129000  0.33845000  0.26168000  1.0
  C  C13  1  0.29633000  0.16273000  0.26161000  1.0
  C  C14  1  0.53562000  0.53471000  0.64999000  1.0
  C  C15  1  0.81539000  0.96411000  0.65007000  1.0
  C  C16  1  0.46440000  0.46528000  0.35001000  1.0
  C  C17  1  0.18462000  0.03588000  0.34993000  1.0
  S  S18  1  0.53600000  0.74980000  0.92620000  1.0
  S  S19  1  0.46397000  0.25021000  0.07380000  1.0
  O  O20  1  0.32149000  0.44434000  0.66118000  1.0
  O  O21  1  0.01832000  0.05444000  0.66128000  1.0
  O  O22  1  0.67854000  0.55564000  0.33882000  1.0
  O  O23  1  0.98168000  0.94555000  0.33872000  1.0
  O  O24  1  0.74090000  0.51151000  0.56818000  1.0
  O  O25  1  0.69164000  0.98764000  0.56823000  1.0
  O  O26  1  0.25911000  0.48850000  0.43182000  1.0
  O  O27  1  0.30838000  0.01235000  0.43177000  1.0
