# generated using pymatgen
data_Hg6H13C14N10Cl13O4
_symmetry_space_group_name_H-M   'P 1'
_cell_length_a   11.93390000
_cell_length_b   13.29190000
_cell_length_c   13.40520000
_cell_angle_alpha   78.58260000
_cell_angle_beta   89.86500000
_cell_angle_gamma   64.66750000
_symmetry_Int_Tables_number   1
_chemical_formula_structural   Hg6H13C14N10Cl13O4
_chemical_formula_sum   'Hg12 H26 C28 N20 Cl26 O8'
_cell_volume   1875.72854661
_cell_formula_units_Z   2
loop_
 _symmetry_equiv_pos_site_id
 _symmetry_equiv_pos_as_xyz
  1  'x, y, z'
loop_
 _atom_site_type_symbol
 _atom_site_label
 _atom_site_symmetry_multiplicity
 _atom_site_fract_x
 _atom_site_fract_y
 _atom_site_fract_z
 _atom_site_occupancy
  Hg  Hg0  1  0.83159000  0.97518000  0.85101000  1.0
  Hg  Hg1  1  0.16841000  0.02482000  0.14898000  1.0
  Hg  Hg2  1  0.14723000  0.74710000  0.05874000  1.0
  Hg  Hg3  1  0.85277000  0.25290000  0.94125000  1.0
  Hg  Hg4  1  0.50872000  0.14185000  0.64563000  1.0
  Hg  Hg5  1  0.49128000  0.85815000  0.35437000  1.0
  Hg  Hg6  1  0.41864000  0.20268000  0.33873000  1.0
  Hg  Hg7  1  0.58136000  0.79732000  0.66127000  1.0
  Hg  Hg8  1  0.81102000  0.00060000  0.15837000  1.0
  Hg  Hg9  1  0.18898000  0.99939000  0.84163000  1.0
  Hg  Hg10  1  0.21487000  0.06516000  0.53262000  1.0
  Hg  Hg11  1  0.78511000  0.93484000  0.46738000  1.0
  H  H12  1  0.53534000  0.19912000  0.90486000  1.0
  H  H13  1  0.46466000  0.80087000  0.09514000  1.0
  H  H14  1  0.46593000  0.21220000  0.08045000  1.0
  H  H15  1  0.53408000  0.78784000  0.91952000  1.0
  H  H16  1  0.30524000  0.24998000  0.09131000  1.0
  H  H17  1  0.69478000  0.75002000  0.90869000  1.0
  H  H18  1  0.17698000  0.42171000  0.62526000  1.0
  H  H19  1  0.82305000  0.57826000  0.37477000  1.0
  H  H20  1  0.91028000  0.55503000  0.93130000  1.0
  H  H21  1  0.08972000  0.44496000  0.06870000  1.0
  H  H22  1  0.85919000  0.59347000  0.79907000  1.0
  H  H23  1  0.14080000  0.40650000  0.20093000  1.0
  H  H24  1  0.66690000  0.52236000  0.78150000  1.0
  H  H25  1  0.33310000  0.47765000  0.21850000  1.0
  H  H26  1  0.97598000  0.25507000  0.25906000  1.0
  H  H27  1  0.02398000  0.74494000  0.74097000  1.0
  H  H28  1  0.58759000  0.46462000  0.54062000  1.0
  H  H29  1  0.41240000  0.53539000  0.45938000  1.0
  H  H30  1  0.63362000  0.33603000  0.63424000  1.0
  H  H31  1  0.36637000  0.66397000  0.36575000  1.0
  H  H32  1  0.91558000  0.22928000  0.63766000  1.0
  H  H33  1  0.08442000  0.77072000  0.36233000  1.0
  H  H34  1  0.49451000  0.52663000  0.20985000  1.0
  H  H35  1  0.50547000  0.47339000  0.79015000  1.0
  H  H36  1  0.59589000  0.49898000  0.10807000  1.0
  H  H37  1  0.40408000  0.50106000  0.89192000  1.0
  C  C38  1  0.26713000  0.35603000  0.78258000  1.0
  C  C39  1  0.73291000  0.64395000  0.21743000  1.0
  C  C40  1  0.23937000  0.36254000  0.88654000  1.0
  C  C41  1  0.76065000  0.63746000  0.11346000  1.0
  C  C42  1  0.43814000  0.25526000  0.87846000  1.0
  C  C43  1  0.56189000  0.74472000  0.12153000  1.0
  C  C44  1  0.37142000  0.27934000  0.05442000  1.0
  C  C45  1  0.62859000  0.72068000  0.94558000  1.0
  C  C46  1  0.35756000  0.38949000  0.08442000  1.0
  C  C47  1  0.64244000  0.61052000  0.91558000  1.0
  C  C48  1  0.04152000  0.48285000  0.83547000  1.0
  C  C49  1  0.95849000  0.51713000  0.16455000  1.0
  C  C50  1  0.16633000  0.42097000  0.70644000  1.0
  C  C51  1  0.83370000  0.57901000  0.29357000  1.0
  C  C52  1  0.87109000  0.28754000  0.39395000  1.0
  C  C53  1  0.12891000  0.71248000  0.60606000  1.0
  C  C54  1  0.88646000  0.30050000  0.28779000  1.0
  C  C55  1  0.11352000  0.69951000  0.71222000  1.0
  C  C56  1  0.67808000  0.43028000  0.25531000  1.0
  C  C57  1  0.32190000  0.56974000  0.74469000  1.0
  C  C58  1  0.74944000  0.35927000  0.42026000  1.0
  C  C59  1  0.25056000  0.64074000  0.57974000  1.0
  C  C60  1  0.66666667  0.39516000  0.59050000  1.0
  C  C61  1  0.33333333  0.60486000  0.40950000  1.0
  C  C62  1  0.71546000  0.44805000  0.66079000  1.0
  C  C63  1  0.28453000  0.55195000  0.33921000  1.0
  C  C64  1  0.88020000  0.26069000  0.55735000  1.0
  C  C65  1  0.11982000  0.73931000  0.44265000  1.0
  N  N66  1  0.39035000  0.28943000  0.78022000  1.0
  N  N67  1  0.60970000  0.71054000  0.21980000  1.0
  N  N68  1  0.35133000  0.29518000  0.94492000  1.0
  N  N69  1  0.64868000  0.70483000  0.05508000  1.0
  N  N70  1  0.13102000  0.42328000  0.91685000  1.0
  N  N71  1  0.86901000  0.57670000  0.08316000  1.0
  N  N72  1  0.05607000  0.48397000  0.73326000  1.0
  N  N73  1  0.94396000  0.51600000  0.26675000  1.0
  N  N74  1  0.92864000  0.54833000  0.85729000  1.0
  N  N75  1  0.07137000  0.45163000  0.14272000  1.0
  N  N76  1  0.94930000  0.22788000  0.47924000  1.0
  N  N77  1  0.05069000  0.77212000  0.52078000  1.0
  N  N78  1  0.65283000  0.43016000  0.35655000  1.0
  N  N79  1  0.34716000  0.56984000  0.64346000  1.0
  N  N80  1  0.76053000  0.33834000  0.52625000  1.0
  N  N81  1  0.23946000  0.66167000  0.47374000  1.0
  N  N82  1  0.79175000  0.37253000  0.22081000  1.0
  N  N83  1  0.20825000  0.62747000  0.77920000  1.0
  N  N84  1  0.58224000  0.49191000  0.18533000  1.0
  N  N85  1  0.41775000  0.50813000  0.81467000  1.0
  Cl  Cl86  1  0.72731000  0.17438000  0.78955000  1.0
  Cl  Cl87  1  0.27270000  0.82561000  0.21044000  1.0
  Cl  Cl88  1  0.92456000  0.77594000  0.90377000  1.0
  Cl  Cl89  1  0.07543000  0.22406000  0.09623000  1.0
  Cl  Cl90  1  0.00000000  0.00000000  0.00000000  1.0
  Cl  Cl91  1  0.00708000  0.73857000  0.17812000  1.0
  Cl  Cl92  1  0.99293000  0.26142000  0.82187000  1.0
  Cl  Cl93  1  0.30228000  0.74146000  0.95126000  1.0
  Cl  Cl94  1  0.69773000  0.25855000  0.04873000  1.0
  Cl  Cl95  1  0.44723000  0.30721000  0.51518000  1.0
  Cl  Cl96  1  0.55277000  0.69279000  0.48481000  1.0
  Cl  Cl97  1  0.57494000  0.98306000  0.78421000  1.0
  Cl  Cl98  1  0.42507000  0.01693000  0.21579000  1.0
  Cl  Cl99  1  0.50000000  0.00000000  0.50000000  1.0
  Cl  Cl100  1  0.20591000  0.25178000  0.35746000  1.0
  Cl  Cl101  1  0.79409000  0.74822000  0.64253000  1.0
  Cl  Cl102  1  0.61983000  0.17486000  0.29534000  1.0
  Cl  Cl103  1  0.38018000  0.82515000  0.70465000  1.0
  Cl  Cl104  1  0.67565000  0.98250000  0.04335000  1.0
  Cl  Cl105  1  0.32435000  0.01750000  0.95665000  1.0
  Cl  Cl106  1  0.94196000  0.01880000  0.27818000  1.0
  Cl  Cl107  1  0.05805000  0.98119000  0.72181000  1.0
  Cl  Cl108  1  0.21094000  0.94830000  0.42429000  1.0
  Cl  Cl109  1  0.78905000  0.05170000  0.57570000  1.0
  Cl  Cl110  1  0.22936000  0.16648000  0.65410000  1.0
  Cl  Cl111  1  0.77064000  0.83352000  0.34589000  1.0
  O  O112  1  0.37195000  0.46519000  0.02244000  1.0
  O  O113  1  0.62804000  0.53483000  0.97756000  1.0
  O  O114  1  0.33030000  0.39247000  0.17729000  1.0
  O  O115  1  0.66970000  0.60754000  0.82270000  1.0
  O  O116  1  0.65106000  0.46425000  0.74183000  1.0
  O  O117  1  0.34892000  0.53575000  0.25817000  1.0
  O  O118  1  0.80142000  0.47338000  0.64152000  1.0
  O  O119  1  0.19855000  0.52664000  0.35848000  1.0
