# generated using pymatgen
data_ZnH4C13NO8
_symmetry_space_group_name_H-M   'P 1'
_cell_length_a   8.16072000
_cell_length_b   9.20103000
_cell_length_c   15.21560000
_cell_angle_alpha   87.44860000
_cell_angle_beta   87.44180000
_cell_angle_gamma   84.99770000
_symmetry_Int_Tables_number   1
_chemical_formula_structural   ZnH4C13NO8
_chemical_formula_sum   'Zn2 H8 C26 N2 O16'
_cell_volume   1136.06073429
_cell_formula_units_Z   2
loop_
 _symmetry_equiv_pos_site_id
 _symmetry_equiv_pos_as_xyz
  1  'x, y, z'
loop_
 _atom_site_type_symbol
 _atom_site_label
 _atom_site_symmetry_multiplicity
 _atom_site_fract_x
 _atom_site_fract_y
 _atom_site_fract_z
 _atom_site_occupancy
  Zn  Zn0  1  0.66220000  0.48208000  0.49790000  1.0
  Zn  Zn1  1  0.33724000  0.51759000  0.50213000  1.0
  H  H2  1  0.33041000  0.84294000  0.90235000  1.0
  H  H3  1  0.66985000  0.15714000  0.09765000  1.0
  H  H4  1  0.66826000  0.13991000  0.93834000  1.0
  H  H5  1  0.33190000  0.86013000  0.06168000  1.0
  H  H6  1  0.54793000  0.07344000  0.70219000  1.0
  H  H7  1  0.45242000  0.92664000  0.29781000  1.0
  H  H8  1  0.19410000  0.85694000  0.71682000  1.0
  H  H9  1  0.80626000  0.14303000  0.28311000  1.0
  C  C10  1  0.49120000  0.77849000  0.50807000  1.0
  C  C11  1  0.50706000  0.22125000  0.49192000  1.0
  C  C12  1  0.50117000  0.52642000  0.32963000  1.0
  C  C13  1  0.49934000  0.47354000  0.67037000  1.0
  C  C14  1  0.55766000  0.35406000  0.82024000  1.0
  C  C15  1  0.44269000  0.64599000  0.17976000  1.0
  C  C16  1  0.43622000  0.60555000  0.80832000  1.0
  C  C17  1  0.56418000  0.39454000  0.19165000  1.0
  C  C18  1  0.49655000  0.47576000  0.76903000  1.0
  C  C19  1  0.50391000  0.52432000  0.23096000  1.0
  C  C20  1  0.43624000  0.61719000  0.90040000  1.0
  C  C21  1  0.56404000  0.38286000  0.09959000  1.0
  C  C22  1  0.56086000  0.36203000  0.91296000  1.0
  C  C23  1  0.43941000  0.63801000  0.08706000  1.0
  C  C24  1  0.49947000  0.49465000  0.95330000  1.0
  C  C25  1  0.50080000  0.50540000  0.04668000  1.0
  C  C26  1  0.37829000  0.74902000  0.94244000  1.0
  C  C27  1  0.62199000  0.25105000  0.05756000  1.0
  C  C28  1  0.62054000  0.24078000  0.96847000  1.0
  C  C29  1  0.37966000  0.75923000  0.03154000  1.0
  C  C30  1  0.49832000  0.93418000  0.50368000  1.0
  C  C31  1  0.50010000  0.06555000  0.49627000  1.0
  C  C32  1  0.61751000  0.21381000  0.77798000  1.0
  C  C33  1  0.38285000  0.78625000  0.22204000  1.0
  C  C34  1  0.38323000  0.73768000  0.75151000  1.0
  C  C35  1  0.61715000  0.26240000  0.24847000  1.0
  N  N36  1  0.06544000  0.50910000  0.50252000  1.0
  N  N37  1  0.93389000  0.49099000  0.49745000  1.0
  O  O38  1  0.62875000  0.70142000  0.50659000  1.0
  O  O39  1  0.36947000  0.29825000  0.49333000  1.0
  O  O40  1  0.65075000  0.26576000  0.48871000  1.0
  O  O41  1  0.34748000  0.73405000  0.51144000  1.0
  O  O42  1  0.63952000  0.50228000  0.36528000  1.0
  O  O43  1  0.36101000  0.49739000  0.63469000  1.0
  O  O44  1  0.63991000  0.45328000  0.63119000  1.0
  O  O45  1  0.36065000  0.54676000  0.36886000  1.0
  O  O46  1  0.74906000  0.14454000  0.79155000  1.0
  O  O47  1  0.50431000  0.16865000  0.72446000  1.0
  O  O48  1  0.25125000  0.85545000  0.20851000  1.0
  O  O49  1  0.49607000  0.83145000  0.27553000  1.0
  O  O50  1  0.47910000  0.81013000  0.70809000  1.0
  O  O51  1  0.21845000  0.76998000  0.75539000  1.0
  O  O52  1  0.52127000  0.18993000  0.29188000  1.0
  O  O53  1  0.78191000  0.23001000  0.24455000  1.0
