# generated using pymatgen
data_Al2H18C26O11
_symmetry_space_group_name_H-M   'P 1'
_cell_length_a   7.24992000
_cell_length_b   11.09250000
_cell_length_c   15.13110000
_cell_angle_alpha   82.97400000
_cell_angle_beta   76.16530000
_cell_angle_gamma   71.24400000
_symmetry_Int_Tables_number   1
_chemical_formula_structural   Al2H18C26O11
_chemical_formula_sum   'Al2 H18 C26 O11'
_cell_volume   1117.42753445
_cell_formula_units_Z   1
loop_
 _symmetry_equiv_pos_site_id
 _symmetry_equiv_pos_as_xyz
  1  'x, y, z'
loop_
 _atom_site_type_symbol
 _atom_site_label
 _atom_site_symmetry_multiplicity
 _atom_site_fract_x
 _atom_site_fract_y
 _atom_site_fract_z
 _atom_site_occupancy
  Al  Al0  1  0.50102000  0.49907000  0.50069000  1.0
  Al  Al1  1  0.00131000  0.49720000  0.50078000  1.0
  H  H2  1  0.25480000  0.59533000  0.39801000  1.0
  H  H3  1  0.77603000  0.36639000  0.58310000  1.0
  H  H4  1  0.14703000  0.11460000  0.49609000  1.0
  H  H5  1  0.73809000  0.12251000  0.49480000  1.0
  H  H6  1  0.26817000  0.87662000  0.50424000  1.0
  H  H7  1  0.80152000  0.56053000  0.76885000  1.0
  H  H8  1  0.42666000  0.44747000  0.77262000  1.0
  H  H9  1  0.14471000  0.55415000  0.22800000  1.0
  H  H10  1  0.63025000  0.43813000  0.23070000  1.0
  H  H11  1  0.63318000  0.64542000  0.00091000  1.0
  H  H12  1  0.55884000  0.57304000  0.92425000  1.0
  H  H13  1  0.36166000  0.35414000  0.00913000  1.0
  H  H14  1  0.51514000  0.42829000  0.92908000  1.0
  H  H15  1  0.22958000  0.64597000  0.99206000  1.0
  H  H16  1  0.37395000  0.57011000  0.07269000  1.0
  H  H17  1  0.78017000  0.35410000  0.99863000  1.0
  H  H18  1  0.55678000  0.42510000  0.07494000  1.0
  H  H19  1  0.92136000  0.78553000  0.50666000  1.0
  C  C20  1  0.83114000  0.49687000  0.34008000  1.0
  C  C21  1  0.63606000  0.72435000  0.50757000  1.0
  C  C22  1  0.16962000  0.50382000  0.66032000  1.0
  C  C23  1  0.36475000  0.27475000  0.49381000  1.0
  C  C24  1  0.56992000  0.86505000  0.50470000  1.0
  C  C25  1  0.43586000  0.13220000  0.49553000  1.0
  C  C26  1  0.70498000  0.93513000  0.50185000  1.0
  C  C27  1  0.30183000  0.06338000  0.49785000  1.0
  C  C28  1  0.63511000  0.06862000  0.49714000  1.0
  C  C29  1  0.36953000  0.93152000  0.50242000  1.0
  C  C30  1  0.67133000  0.55772000  0.96416000  1.0
  C  C31  1  0.36346000  0.44314000  0.96790000  1.0
  C  C32  1  0.27553000  0.55667000  0.03327000  1.0
  C  C33  1  0.69352000  0.44151000  0.03541000  1.0
  C  C34  1  0.91784000  0.53604000  0.80806000  1.0
  C  C35  1  0.87186000  0.53507000  0.90278000  1.0
  C  C36  1  0.27224000  0.47094000  0.81022000  1.0
  C  C37  1  0.22432000  0.46906000  0.90494000  1.0
  C  C38  1  0.05154000  0.53021000  0.19032000  1.0
  C  C39  1  0.09742000  0.53195000  0.09563000  1.0
  C  C40  1  0.76075000  0.46391000  0.19185000  1.0
  C  C41  1  0.80886000  0.46523000  0.09712000  1.0
  C  C42  1  0.11863000  0.50414000  0.76167000  1.0
  C  C43  1  0.02507000  0.50146000  0.95032000  1.0
  C  C44  1  0.88242000  0.49657000  0.23868000  1.0
  C  C45  1  0.97593000  0.49965000  0.04987000  1.0
  O  O46  1  0.65440000  0.49530000  0.37873000  1.0
  O  O47  1  0.82247000  0.66880000  0.50943000  1.0
  O  O48  1  0.03138000  0.50363000  0.62141000  1.0
  O  O49  1  0.49499000  0.32959000  0.49402000  1.0
  O  O50  1  0.34745000  0.50250000  0.62157000  1.0
  O  O51  1  0.17975000  0.32797000  0.49374000  1.0
  O  O52  1  0.96790000  0.50024000  0.37901000  1.0
  O  O53  1  0.50874000  0.66824000  0.50679000  1.0
  O  O54  1  0.24010000  0.55971000  0.46026000  1.0
  O  O55  1  0.76073000  0.44016000  0.54075000  1.0
  O  O56  1  0.89968000  0.87956000  0.50325000  1.0
