# generated using pymatgen
data_ZnH16C33(NO3)2
_symmetry_space_group_name_H-M   'P 1'
_cell_length_a   16.49080000
_cell_length_b   17.89110000
_cell_length_c   28.11900000
_cell_angle_alpha   89.76960000
_cell_angle_beta   89.88680000
_cell_angle_gamma   89.71970000
_symmetry_Int_Tables_number   1
_chemical_formula_structural   ZnH16C33(NO3)2
_chemical_formula_sum   'Zn2 H32 C66 N4 O12'
_cell_volume   8296.00681670
_cell_formula_units_Z   2
loop_
 _symmetry_equiv_pos_site_id
 _symmetry_equiv_pos_as_xyz
  1  'x, y, z'
loop_
 _atom_site_type_symbol
 _atom_site_label
 _atom_site_symmetry_multiplicity
 _atom_site_fract_x
 _atom_site_fract_y
 _atom_site_fract_z
 _atom_site_occupancy
  Zn  Zn0  1  0.58377000  0.49962000  0.50019000  1.0
  Zn  Zn1  1  0.41612000  0.50032000  0.50034000  1.0
  H  H2  1  0.37005000  0.50393000  0.65239000  1.0
  H  H3  1  0.13515000  0.41438000  0.55453000  1.0
  H  H4  1  0.71283000  0.41805000  0.55234000  1.0
  H  H5  1  0.28747000  0.58203000  0.44806000  1.0
  H  H6  1  0.71171000  0.58120000  0.44789000  1.0
  H  H7  1  0.28779000  0.41857000  0.55233000  1.0
  H  H8  1  0.36962000  0.50421000  0.74171000  1.0
  H  H9  1  0.63054000  0.50541000  0.25869000  1.0
  H  H10  1  0.55139000  0.31800000  0.87837000  1.0
  H  H11  1  0.42076000  0.67337000  0.12194000  1.0
  H  H12  1  0.37027000  0.49546000  0.34812000  1.0
  H  H13  1  0.62993000  0.50514000  0.34798000  1.0
  H  H14  1  0.62986000  0.49562000  0.65215000  1.0
  H  H15  1  0.37005000  0.49548000  0.25883000  1.0
  H  H16  1  0.63021000  0.49530000  0.74148000  1.0
  H  H17  1  0.57998000  0.32732000  0.12291000  1.0
  H  H18  1  0.44844000  0.68150000  0.87730000  1.0
  H  H19  1  0.57807000  0.32406000  0.03494000  1.0
  H  H20  1  0.44530000  0.68314000  0.96530000  1.0
  H  H21  1  0.55484000  0.31673000  0.96637000  1.0
  H  H22  1  0.42236000  0.67616000  0.03394000  1.0
  H  H23  1  0.63059000  0.87725000  0.48478000  1.0
  H  H24  1  0.62982000  0.73780000  0.49264000  1.0
  H  H25  1  0.36933000  0.12311000  0.48482000  1.0
  H  H26  1  0.63080000  0.12191000  0.48481000  1.0
  H  H27  1  0.36912000  0.87839000  0.48468000  1.0
  H  H28  1  0.37008000  0.26241000  0.49302000  1.0
  H  H29  1  0.63000000  0.26122000  0.49295000  1.0
  H  H30  1  0.36990000  0.73893000  0.49250000  1.0
  H  H31  1  0.86550000  0.41446000  0.55473000  1.0
  H  H32  1  0.13479000  0.58568000  0.44532000  1.0
  H  H33  1  0.86437000  0.58542000  0.44531000  1.0
  C  C34  1  0.50003000  0.35317000  0.49856000  1.0
  C  C35  1  0.52908000  0.43703000  0.12724000  1.0
  C  C36  1  0.49994000  0.49931000  0.64718000  1.0
  C  C37  1  0.50007000  0.50069000  0.35315000  1.0
  C  C38  1  0.52662000  0.43462000  0.02630000  1.0
  C  C39  1  0.47772000  0.56669000  0.97395000  1.0
  C  C40  1  0.47372000  0.56553000  0.02593000  1.0
  C  C41  1  0.52244000  0.43322000  0.97435000  1.0
  C  C42  1  0.50019000  0.50013000  0.05094000  1.0
  C  C43  1  0.50003000  0.49990000  0.94934000  1.0
  C  C44  1  0.55560000  0.37382000  0.05292000  1.0
  C  C45  1  0.49986000  0.64678000  0.49712000  1.0
  C  C46  1  0.46033000  0.63109000  0.94731000  1.0
  C  C47  1  0.55716000  0.37494000  0.10257000  1.0
  C  C48  1  0.46198000  0.63099000  0.89766000  1.0
  C  C49  1  0.49996000  0.49921000  0.59379000  1.0
  C  C50  1  0.49998000  0.50069000  0.40653000  1.0
  C  C51  1  0.53974000  0.36871000  0.94808000  1.0
  C  C52  1  0.44486000  0.62648000  0.05221000  1.0
  C  C53  1  0.57363000  0.84668000  0.48629000  1.0
  C  C54  1  0.42629000  0.15359000  0.48667000  1.0
  C  C55  1  0.57382000  0.15290000  0.48666000  1.0
  C  C56  1  0.49994000  0.49979000  0.89843000  1.0
  C  C57  1  0.42610000  0.84735000  0.48623000  1.0
  C  C58  1  0.57327000  0.76936000  0.49062000  1.0
  C  C59  1  0.42664000  0.23081000  0.49131000  1.0
  C  C60  1  0.57346000  0.23012000  0.49128000  1.0
  C  C61  1  0.42645000  0.77002000  0.49055000  1.0
  C  C62  1  0.49985000  0.73021000  0.49281000  1.0
  C  C63  1  0.50005000  0.26985000  0.49386000  1.0
  C  C64  1  0.49987000  0.88709000  0.48424000  1.0
  C  C65  1  0.50005000  0.11321000  0.48458000  1.0
  C  C66  1  0.49991000  0.96604000  0.48172000  1.0
  C  C67  1  0.50027000  0.50026000  0.10184000  1.0
  C  C68  1  0.50003000  0.03431000  0.48182000  1.0
  C  C69  1  0.83365000  0.45213000  0.53059000  1.0
  C  C70  1  0.16647000  0.54794000  0.46949000  1.0
  C  C71  1  0.83302000  0.54761000  0.46948000  1.0
  C  C72  1  0.16667000  0.45228000  0.53049000  1.0
  C  C73  1  0.74954000  0.45382000  0.52944000  1.0
  C  C74  1  0.25058000  0.54623000  0.47083000  1.0
  C  C75  1  0.74893000  0.54557000  0.47072000  1.0
  C  C76  1  0.25076000  0.45431000  0.52945000  1.0
  C  C77  1  0.87726000  0.49995000  0.50000000  1.0
  C  C78  1  0.51915000  0.43346000  0.87339000  1.0
  C  C79  1  0.12265000  0.50007000  0.49994000  1.0
  C  C80  1  0.96299000  0.50003000  0.49993000  1.0
  C  C81  1  0.03691000  0.50002000  0.49988000  1.0
  C  C82  1  0.51916000  0.43177000  0.82079000  1.0
  C  C83  1  0.47077000  0.56512000  0.17948000  1.0
  C  C84  1  0.48049000  0.56749000  0.82040000  1.0
  C  C85  1  0.53002000  0.43583000  0.17984000  1.0
  C  C86  1  0.57347000  0.49723000  0.72170000  1.0
  C  C87  1  0.42675000  0.49759000  0.27860000  1.0
  C  C88  1  0.57330000  0.49715000  0.67220000  1.0
  C  C89  1  0.47155000  0.56363000  0.12688000  1.0
  C  C90  1  0.42681000  0.49780000  0.32810000  1.0
  C  C91  1  0.42657000  0.50181000  0.67233000  1.0
  C  C92  1  0.57344000  0.50337000  0.32801000  1.0
  C  C93  1  0.42636000  0.50190000  0.72183000  1.0
  C  C94  1  0.57375000  0.50354000  0.27852000  1.0
  C  C95  1  0.49990000  0.49952000  0.74620000  1.0
  C  C96  1  0.50029000  0.50062000  0.25410000  1.0
  C  C97  1  0.53791000  0.36859000  0.89843000  1.0
  C  C98  1  0.44345000  0.62562000  0.10186000  1.0
  C  C99  1  0.48065000  0.56600000  0.87301000  1.0
  N  N100  1  0.49989000  0.49960000  0.79754000  1.0
  N  N101  1  0.50036000  0.50052000  0.20278000  1.0
  N  N102  1  0.70814000  0.49960000  0.50010000  1.0
  N  N103  1  0.29176000  0.50039000  0.50025000  1.0
  O  O104  1  0.56882000  0.38534000  0.49987000  1.0
  O  O105  1  0.44625000  0.61928000  0.20229000  1.0
  O  O106  1  0.55470000  0.38184000  0.20298000  1.0
  O  O107  1  0.46466000  0.62412000  0.79720000  1.0
  O  O108  1  0.43106000  0.61459000  0.49848000  1.0
  O  O109  1  0.56866000  0.61407000  0.49888000  1.0
  O  O110  1  0.43122000  0.38585000  0.50056000  1.0
  O  O111  1  0.56875000  0.49855000  0.57308000  1.0
  O  O112  1  0.43117000  0.50030000  0.42721000  1.0
  O  O113  1  0.56874000  0.50098000  0.42712000  1.0
  O  O114  1  0.43118000  0.49989000  0.57321000  1.0
  O  O115  1  0.53481000  0.37500000  0.79792000  1.0
