# generated using pymatgen
data_ZnH16C21N4O5
_symmetry_space_group_name_H-M   'P 1'
_cell_length_a   10.11440000
_cell_length_b   10.23190000
_cell_length_c   10.94700000
_cell_angle_alpha   102.65600000
_cell_angle_beta   105.81600000
_cell_angle_gamma   107.09100000
_symmetry_Int_Tables_number   1
_chemical_formula_structural   ZnH16C21N4O5
_chemical_formula_sum   'Zn2 H32 C42 N8 O10'
_cell_volume   985.19506457
_cell_formula_units_Z   2
loop_
 _symmetry_equiv_pos_site_id
 _symmetry_equiv_pos_as_xyz
  1  'x, y, z'
loop_
 _atom_site_type_symbol
 _atom_site_label
 _atom_site_symmetry_multiplicity
 _atom_site_fract_x
 _atom_site_fract_y
 _atom_site_fract_z
 _atom_site_occupancy
  Zn  Zn0  1  0.72591000  0.40135000  0.83787000  1.0
  Zn  Zn1  1  0.27409000  0.59865000  0.16213000  1.0
  H  H2  1  0.67696000  0.88375000  0.81100000  1.0
  H  H3  1  0.32304000  0.11624000  0.18900000  1.0
  H  H4  1  0.07306000  0.79529000  0.85184000  1.0
  H  H5  1  0.92694000  0.20471000  0.14816000  1.0
  H  H6  1  0.07014000  0.21108000  0.82825000  1.0
  H  H7  1  0.92986000  0.78892000  0.17175000  1.0
  H  H8  1  0.27732000  0.87252000  0.79890000  1.0
  H  H9  1  0.72268000  0.12748000  0.20109000  1.0
  H  H10  1  0.31768000  0.95000000  0.97527000  1.0
  H  H11  1  0.68232000  0.04999000  0.02473000  1.0
  H  H12  1  0.43317000  0.03788000  0.89511000  1.0
  H  H13  1  0.56683000  0.96212000  0.10489000  1.0
  H  H14  1  0.21334000  0.92191000  0.55933000  1.0
  H  H15  1  0.78665000  0.07809000  0.44067000  1.0
  H  H16  1  0.04204000  0.25156000  0.50007000  1.0
  H  H17  1  0.95796000  0.74844000  0.49993000  1.0
  H  H18  1  0.40824000  0.13853000  0.73293000  1.0
  H  H19  1  0.59176000  0.86147000  0.26708000  1.0
  H  H20  1  0.55931000  0.47961000  0.58764000  1.0
  H  H21  1  0.44069000  0.52038000  0.41236000  1.0
  H  H22  1  0.25718000  0.32088000  0.43627000  1.0
  H  H23  1  0.74281000  0.67911000  0.56373000  1.0
  H  H24  1  0.73439000  0.34362000  0.43043000  1.0
  H  H25  1  0.26562000  0.65639000  0.56957000  1.0
  H  H26  1  0.09260000  0.60762000  0.34199000  1.0
  H  H27  1  0.90741000  0.39238000  0.65801000  1.0
  H  H28  1  0.95457000  0.46746000  0.13133000  1.0
  H  H29  1  0.04543000  0.53254000  0.86867000  1.0
  H  H30  1  0.49024000  0.36248000  0.99691000  1.0
  H  H31  1  0.50977000  0.63754000  0.00309000  1.0
  H  H32  1  0.58911000  0.39599000  0.26400000  1.0
  H  H33  1  0.41090000  0.60402000  0.73600000  1.0
  C  C34  1  0.86352000  0.05605000  0.81398000  1.0
  C  C35  1  0.13648000  0.94394000  0.18602000  1.0
  C  C36  1  0.79131000  0.91741000  0.81606000  1.0
  C  C37  1  0.20869000  0.08259000  0.18393000  1.0
  C  C38  1  0.86719000  0.82444000  0.82925000  1.0
  C  C39  1  0.13281000  0.17555000  0.17074000  1.0
  C  C40  1  0.01586000  0.86904000  0.83942000  1.0
  C  C41  1  0.98414000  0.13096000  0.16058000  1.0
  C  C42  1  0.08867000  0.00833000  0.83911000  1.0
  C  C43  1  0.91133000  0.99167000  0.16089000  1.0
  C  C44  1  0.01216000  0.10168000  0.82539000  1.0
  C  C45  1  0.98784000  0.89831000  0.17461000  1.0
  C  C46  1  0.78078000  0.15627000  0.81055000  1.0
  C  C47  1  0.21922000  0.84373000  0.18945000  1.0
  C  C48  1  0.78853000  0.67898000  0.83712000  1.0
  C  C49  1  0.21147000  0.32102000  0.16287000  1.0
  C  C50  1  0.31934000  0.97450000  0.88255000  1.0
  C  C51  1  0.68066000  0.02550000  0.11745000  1.0
  C  C52  1  0.14289000  0.09734000  0.53365000  1.0
  C  C53  1  0.85710000  0.90266000  0.46635000  1.0
  C  C54  1  0.12009000  0.95646000  0.53492000  1.0
  C  C55  1  0.87991000  0.04354000  0.46509000  1.0
  C  C56  1  0.02323000  0.14083000  0.49829000  1.0
  C  C57  1  0.97676000  0.85917000  0.50171000  1.0
  C  C58  1  0.41015000  0.20969000  0.67301000  1.0
  C  C59  1  0.58985000  0.79031000  0.32699000  1.0
  C  C60  1  0.48213000  0.38467000  0.59365000  1.0
  C  C61  1  0.51787000  0.61532000  0.40635000  1.0
  C  C62  1  0.33376000  0.31010000  0.52078000  1.0
  C  C63  1  0.66624000  0.68989000  0.47922000  1.0
  C  C64  1  0.90238000  0.47080000  0.37031000  1.0
  C  C65  1  0.09763000  0.52920000  0.62969000  1.0
  C  C66  1  0.85044000  0.41343000  0.46089000  1.0
  C  C67  1  0.14957000  0.58657000  0.53911000  1.0
  C  C68  1  0.05252000  0.55788000  0.41003000  1.0
  C  C69  1  0.94748000  0.44213000  0.58997000  1.0
  C  C70  1  0.84272000  0.44799000  0.12957000  1.0
  C  C71  1  0.15728000  0.55201000  0.87043000  1.0
  C  C72  1  0.60256000  0.39043000  0.06392000  1.0
  C  C73  1  0.39745000  0.60958000  0.93609000  1.0
  C  C74  1  0.65048000  0.40523000  0.19753000  1.0
  C  C75  1  0.34952000  0.59477000  0.80248000  1.0
  N  N76  1  0.28930000  0.19920000  0.57238000  1.0
  N  N77  1  0.71069000  0.80080000  0.42762000  1.0
  N  N78  1  0.52773000  0.32137000  0.68785000  1.0
  N  N79  1  0.47226000  0.67863000  0.31215000  1.0
  N  N80  1  0.80343000  0.44252000  0.23892000  1.0
  N  N81  1  0.19657000  0.55749000  0.76108000  1.0
  N  N82  1  0.72331000  0.41741000  0.02318000  1.0
  N  N83  1  0.27669000  0.58259000  0.97682000  1.0
  O  O84  1  0.84959000  0.28404000  0.80691000  1.0
  O  O85  1  0.15041000  0.71596000  0.19310000  1.0
  O  O86  1  0.65303000  0.11646000  0.81554000  1.0
  O  O87  1  0.34697000  0.88355000  0.18446000  1.0
  O  O88  1  0.66764000  0.65194000  0.85472000  1.0
  O  O89  1  0.33236000  0.34805000  0.14527000  1.0
  O  O90  1  0.85156000  0.58488000  0.82264000  1.0
  O  O91  1  0.14844000  0.41512000  0.17735000  1.0
  O  O92  1  0.23495000  0.06199000  0.85325000  1.0
  O  O93  1  0.76505000  0.93801000  0.14675000  1.0
