# generated using pymatgen
data_Cu4H24WC36S4(IN9)2
_symmetry_space_group_name_H-M   'P 1'
_cell_length_a   13.90200000
_cell_length_b   20.55510000
_cell_length_c   20.55510000
_cell_angle_alpha   99.77580000
_cell_angle_beta   89.99990000
_cell_angle_gamma   89.99990000
_symmetry_Int_Tables_number   1
_chemical_formula_structural   Cu4H24WC36S4(IN9)2
_chemical_formula_sum   'Cu16 H96 W4 C144 S16 I8 N72'
_cell_volume   5788.47491478
_cell_formula_units_Z   4
loop_
 _symmetry_equiv_pos_site_id
 _symmetry_equiv_pos_as_xyz
  1  'x, y, z'
loop_
 _atom_site_type_symbol
 _atom_site_label
 _atom_site_symmetry_multiplicity
 _atom_site_fract_x
 _atom_site_fract_y
 _atom_site_fract_z
 _atom_site_occupancy
  Cu  Cu0  1  0.65862000  0.61549000  0.72749000  1.0
  Cu  Cu1  1  0.65862000  0.88451000  0.77251000  1.0
  Cu  Cu2  1  0.84139000  0.27251000  0.38452000  1.0
  Cu  Cu3  1  0.84139000  0.22749000  0.11549000  1.0
  Cu  Cu4  1  0.34143000  0.38451000  0.27251000  1.0
  Cu  Cu5  1  0.34143000  0.11549000  0.22749000  1.0
  Cu  Cu6  1  0.15857000  0.72749000  0.61549000  1.0
  Cu  Cu7  1  0.15857000  0.77251000  0.88451000  1.0
  Cu  Cu8  1  0.65963000  0.74748000  0.88027000  1.0
  Cu  Cu9  1  0.65963000  0.75252000  0.61974000  1.0
  Cu  Cu10  1  0.84037000  0.11973000  0.25252000  1.0
  Cu  Cu11  1  0.84037000  0.38026000  0.24748000  1.0
  Cu  Cu12  1  0.34041000  0.25252000  0.11974000  1.0
  Cu  Cu13  1  0.34041000  0.24748000  0.38026000  1.0
  Cu  Cu14  1  0.15959000  0.88026000  0.74748000  1.0
  Cu  Cu15  1  0.15959000  0.61974000  0.75252000  1.0
  H  H16  1  0.65924000  0.48819000  0.77604000  1.0
  H  H17  1  0.65924000  0.01181000  0.72396000  1.0
  H  H18  1  0.84076000  0.22395000  0.51181000  1.0
  H  H19  1  0.84076000  0.27604000  0.98819000  1.0
  H  H20  1  0.34080000  0.51182000  0.22398000  1.0
  H  H21  1  0.34081000  0.98818000  0.27602000  1.0
  H  H22  1  0.15919000  0.77602000  0.48818000  1.0
  H  H23  1  0.15920000  0.72398000  0.01182000  1.0
  H  H24  1  0.76083000  0.42719000  0.84583000  1.0
  H  H25  1  0.76082000  0.07281000  0.65416000  1.0
  H  H26  1  0.73918000  0.15416000  0.57281000  1.0
  H  H27  1  0.73917000  0.34583000  0.92719000  1.0
  H  H28  1  0.23922000  0.57282000  0.15419000  1.0
  H  H29  1  0.23923000  0.92718000  0.34581000  1.0
  H  H30  1  0.26077000  0.84581000  0.42718000  1.0
  H  H31  1  0.26078000  0.65419000  0.07282000  1.0
  H  H32  1  0.97097000  0.58392000  0.85381000  1.0
  H  H33  1  0.97097000  0.91608000  0.64620000  1.0
  H  H34  1  0.52903000  0.14619000  0.41608000  1.0
  H  H35  1  0.52903000  0.35380000  0.08392000  1.0
  H  H36  1  0.02910000  0.41608000  0.14619000  1.0
  H  H37  1  0.02910000  0.08392000  0.35381000  1.0
  H  H38  1  0.47090000  0.85381000  0.58392000  1.0
  H  H39  1  0.47091000  0.64619000  0.91608000  1.0
  H  H40  1  0.85859000  0.63970000  0.78699000  1.0
  H  H41  1  0.85858000  0.86030000  0.71301000  1.0
  H  H42  1  0.64142000  0.21301000  0.36030000  1.0
  H  H43  1  0.64142000  0.28699000  0.13970000  1.0
  H  H44  1  0.14148000  0.36030000  0.21301000  1.0
  H  H45  1  0.14148000  0.13970000  0.28699000  1.0
  H  H46  1  0.35852000  0.78699000  0.63970000  1.0
  H  H47  1  0.35852000  0.71301000  0.86030000  1.0
  H  H48  1  0.02101000  0.28695000  0.01067000  1.0
  H  H49  1  0.02101000  0.21305000  0.48933000  1.0
  H  H50  1  0.47899000  0.98933000  0.71305000  1.0
  H  H51  1  0.47899000  0.51067000  0.78695000  1.0
  H  H52  1  0.97904000  0.71306000  0.98934000  1.0
  H  H53  1  0.97905000  0.78694000  0.51066000  1.0
  H  H54  1  0.52096000  0.01066000  0.28694000  1.0
  H  H55  1  0.52096000  0.48934000  0.21306000  1.0
  H  H56  1  0.13715000  0.23099000  0.07215000  1.0
  H  H57  1  0.13716000  0.26901000  0.42785000  1.0
  H  H58  1  0.36284000  0.92786000  0.76901000  1.0
  H  H59  1  0.36285000  0.57214000  0.73099000  1.0
  H  H60  1  0.86291000  0.76900000  0.92786000  1.0
  H  H61  1  0.86291000  0.73099000  0.57215000  1.0
  H  H62  1  0.63709000  0.07214000  0.23099000  1.0
  H  H63  1  0.63709000  0.42786000  0.26901000  1.0
  H  H64  1  0.34660000  0.37390000  0.06255000  1.0
  H  H65  1  0.34660000  0.12610000  0.43745000  1.0
  H  H66  1  0.15340000  0.93745000  0.62610000  1.0
  H  H67  1  0.15340000  0.56255000  0.87390000  1.0
  H  H68  1  0.65345000  0.62611000  0.93749000  1.0
  H  H69  1  0.65345000  0.87389000  0.56251000  1.0
  H  H70  1  0.84655000  0.06251000  0.37389000  1.0
  H  H71  1  0.84655000  0.43749000  0.12611000  1.0
  H  H72  1  0.23901000  0.43632000  0.00040000  1.0
  H  H73  1  0.23901000  0.06368000  0.49960000  1.0
  H  H74  1  0.26099000  0.99960000  0.56368000  1.0
  H  H75  1  0.26099000  0.50040000  0.93633000  1.0
  H  H76  1  0.76104000  0.56370000  0.99964000  1.0
  H  H77  1  0.76104000  0.93630000  0.50036000  1.0
  H  H78  1  0.73896000  0.00036000  0.43630000  1.0
  H  H79  1  0.73896000  0.49964000  0.06370000  1.0
  H  H80  1  0.59394000  0.75545000  0.02328000  1.0
  H  H81  1  0.59394000  0.74455000  0.47672000  1.0
  H  H82  1  0.90606000  0.97672000  0.24455000  1.0
  H  H83  1  0.90605000  0.52328000  0.25545000  1.0
  H  H84  1  0.40607000  0.24456000  0.97674000  1.0
  H  H85  1  0.40607000  0.25544000  0.52326000  1.0
  H  H86  1  0.09393000  0.02326000  0.75544000  1.0
  H  H87  1  0.09393000  0.47674000  0.74456000  1.0
  H  H88  1  0.45492000  0.80778000  0.09109000  1.0
  H  H89  1  0.45492000  0.69223000  0.40891000  1.0
  H  H90  1  0.04508000  0.90891000  0.19222000  1.0
  H  H91  1  0.04508000  0.59109000  0.30778000  1.0
  H  H92  1  0.54507000  0.19221000  0.90892000  1.0
  H  H93  1  0.54508000  0.30779000  0.59108000  1.0
  H  H94  1  0.95492000  0.09108000  0.80779000  1.0
  H  H95  1  0.95493000  0.40892000  0.69221000  1.0
  H  H96  1  0.37281000  0.89743000  0.92421000  1.0
  H  H97  1  0.37281000  0.60257000  0.57579000  1.0
  H  H98  1  0.12719000  0.07579000  0.10257000  1.0
  H  H99  1  0.12719000  0.42421000  0.39743000  1.0
  H  H100  1  0.62716000  0.10253000  0.07579000  1.0
  H  H101  1  0.62716000  0.39747000  0.42421000  1.0
  H  H102  1  0.87284000  0.92421000  0.89747000  1.0
  H  H103  1  0.87285000  0.57579000  0.60253000  1.0
  H  H104  1  0.51011000  0.83888000  0.86198000  1.0
  H  H105  1  0.51011000  0.66112000  0.63802000  1.0
  H  H106  1  0.98989000  0.13802000  0.16112000  1.0
  H  H107  1  0.98989000  0.36198000  0.33888000  1.0
  H  H108  1  0.48988000  0.16110000  0.13803000  1.0
  H  H109  1  0.48988000  0.33890000  0.36197000  1.0
  H  H110  1  0.01012000  0.86197000  0.83890000  1.0
  H  H111  1  0.01012000  0.63803000  0.66110000  1.0
  W  W112  1  0.65717000  0.75000000  0.75000000  1.0
  W  W113  1  0.84282000  0.25000000  0.25000000  1.0
  W  W114  1  0.34287000  0.25000000  0.25000000  1.0
  W  W115  1  0.15712000  0.75000000  0.75000000  1.0
  C  C116  1  0.72849000  0.50778000  0.79524000  1.0
  C  C117  1  0.72849000  0.99222000  0.70476000  1.0
  C  C118  1  0.77151000  0.20476000  0.49222000  1.0
  C  C119  1  0.77151000  0.29524000  0.00778000  1.0
  C  C120  1  0.27157000  0.49223000  0.20478000  1.0
  C  C121  1  0.27157000  0.00777000  0.29523000  1.0
  C  C122  1  0.22843000  0.79522000  0.50777000  1.0
  C  C123  1  0.22844000  0.70478000  0.99223000  1.0
  C  C124  1  0.78596000  0.47357000  0.83325000  1.0
  C  C125  1  0.78596000  0.02643000  0.66675000  1.0
  C  C126  1  0.71404000  0.16675000  0.52643000  1.0
  C  C127  1  0.71404000  0.33325000  0.97357000  1.0
  C  C128  1  0.21409000  0.52644000  0.16677000  1.0
  C  C129  1  0.21409000  0.97356000  0.33323000  1.0
  C  C130  1  0.28591000  0.83323000  0.47356000  1.0
  C  C131  1  0.28591000  0.66677000  0.02643000  1.0
  C  C132  1  0.87531000  0.50029000  0.85536000  1.0
  C  C133  1  0.87530000  0.99970000  0.64464000  1.0
  C  C134  1  0.62470000  0.14464000  0.49971000  1.0
  C  C135  1  0.62470000  0.35536000  0.00030000  1.0
  C  C136  1  0.12475000  0.49971000  0.14465000  1.0
  C  C137  1  0.12475000  0.00029000  0.35535000  1.0
  C  C138  1  0.37525000  0.85535000  0.50029000  1.0
  C  C139  1  0.37525000  0.64465000  0.99971000  1.0
  C  C140  1  0.90249000  0.56096000  0.83800000  1.0
  C  C141  1  0.90249000  0.93904000  0.66200000  1.0
  C  C142  1  0.59751000  0.16200000  0.43904000  1.0
  C  C143  1  0.59751000  0.33800000  0.06096000  1.0
  C  C144  1  0.09757000  0.43904000  0.16200000  1.0
  C  C145  1  0.09757000  0.06096000  0.33800000  1.0
  C  C146  1  0.40243000  0.83800000  0.56096000  1.0
  C  C147  1  0.40243000  0.66200000  0.93904000  1.0
  C  C148  1  0.83996000  0.59219000  0.80063000  1.0
  C  C149  1  0.83996000  0.90781000  0.69937000  1.0
  C  C150  1  0.66005000  0.19936000  0.40781000  1.0
  C  C151  1  0.66004000  0.30063000  0.09219000  1.0
  C  C152  1  0.16010000  0.40780000  0.19937000  1.0
  C  C153  1  0.16010000  0.09220000  0.30063000  1.0
  C  C154  1  0.33990000  0.80063000  0.59220000  1.0
  C  C155  1  0.33990000  0.69937000  0.90780000  1.0
  C  C156  1  0.93839000  0.46605000  0.89575000  1.0
  C  C157  1  0.93838000  0.03395000  0.60425000  1.0
  C  C158  1  0.56161000  0.10425000  0.53395000  1.0
  C  C159  1  0.56161000  0.39575000  0.96605000  1.0
  C  C160  1  0.06166000  0.53396000  0.10427000  1.0
  C  C161  1  0.06166000  0.96604000  0.39573000  1.0
  C  C162  1  0.43834000  0.89573000  0.46604000  1.0
  C  C163  1  0.43834000  0.60427000  0.03396000  1.0
  C  C164  1  0.05292000  0.40356000  0.96351000  1.0
  C  C165  1  0.05292000  0.09644000  0.53649000  1.0
  C  C166  1  0.44708000  0.03649000  0.59644000  1.0
  C  C167  1  0.44707000  0.46351000  0.90356000  1.0
  C  C168  1  0.94712000  0.59645000  0.03652000  1.0
  C  C169  1  0.94712000  0.90354000  0.46349000  1.0
  C  C170  1  0.55288000  0.96348000  0.40354000  1.0
  C  C171  1  0.55287000  0.53651000  0.09646000  1.0
  C  C172  1  0.11964000  0.36735000  0.99960000  1.0
  C  C173  1  0.11964000  0.13265000  0.50040000  1.0
  C  C174  1  0.38036000  0.00040000  0.63265000  1.0
  C  C175  1  0.38036000  0.49960000  0.86735000  1.0
  C  C176  1  0.88042000  0.63266000  0.00042000  1.0
  C  C177  1  0.88042000  0.86734000  0.49958000  1.0
  C  C178  1  0.61958000  0.99958000  0.36734000  1.0
  C  C179  1  0.61958000  0.50042000  0.13266000  1.0
  C  C180  1  0.09210000  0.30866000  0.02066000  1.0
  C  C181  1  0.09211000  0.19134000  0.47934000  1.0
  C  C182  1  0.40789000  0.97934000  0.69134000  1.0
  C  C183  1  0.40789000  0.52066000  0.80866000  1.0
  C  C184  1  0.90795000  0.69134000  0.97935000  1.0
  C  C185  1  0.90796000  0.80865000  0.52065000  1.0
  C  C186  1  0.59205000  0.02065000  0.30865000  1.0
  C  C187  1  0.59204000  0.47935000  0.19135000  1.0
  C  C188  1  0.15753000  0.27668000  0.05538000  1.0
  C  C189  1  0.15753000  0.22332000  0.44462000  1.0
  C  C190  1  0.34247000  0.94462000  0.72332000  1.0
  C  C191  1  0.34247000  0.55538000  0.77668000  1.0
  C  C192  1  0.84252000  0.72332000  0.94463000  1.0
  C  C193  1  0.84252000  0.77668000  0.55537000  1.0
  C  C194  1  0.65748000  0.05537000  0.27668000  1.0
  C  C195  1  0.65748000  0.44463000  0.22332000  1.0
  C  C196  1  0.27390000  0.35630000  0.04995000  1.0
  C  C197  1  0.27390000  0.14370000  0.45005000  1.0
  C  C198  1  0.22610000  0.95006000  0.64370000  1.0
  C  C199  1  0.22610000  0.54995000  0.85630000  1.0
  C  C200  1  0.72615000  0.64372000  0.95008000  1.0
  C  C201  1  0.72615000  0.85628000  0.54992000  1.0
  C  C202  1  0.77385000  0.04992000  0.35628000  1.0
  C  C203  1  0.77385000  0.45008000  0.14372000  1.0
  C  C204  1  0.21313000  0.39110000  0.01494000  1.0
  C  C205  1  0.21313000  0.10890000  0.48506000  1.0
  C  C206  1  0.28686000  0.98506000  0.60890000  1.0
  C  C207  1  0.28686000  0.51494000  0.89110000  1.0
  C  C208  1  0.78691000  0.60891000  0.98509000  1.0
  C  C209  1  0.78692000  0.89109000  0.51491000  1.0
  C  C210  1  0.71308000  0.01491000  0.39109000  1.0
  C  C211  1  0.71308000  0.48509000  0.10891000  1.0
  C  C212  1  0.54218000  0.78659000  0.00304000  1.0
  C  C213  1  0.54218000  0.71341000  0.49696000  1.0
  C  C214  1  0.95782000  0.99696000  0.21341000  1.0
  C  C215  1  0.95782000  0.50304000  0.28659000  1.0
  C  C216  1  0.45784000  0.21340000  0.99697000  1.0
  C  C217  1  0.45784000  0.28660000  0.50303000  1.0
  C  C218  1  0.04216000  0.00303000  0.78660000  1.0
  C  C219  1  0.04216000  0.49697000  0.71340000  1.0
  C  C220  1  0.46556000  0.81557000  0.04051000  1.0
  C  C221  1  0.46556000  0.68444000  0.45949000  1.0
  C  C222  1  0.03444000  0.95949000  0.18443000  1.0
  C  C223  1  0.03444000  0.54051000  0.31557000  1.0
  C  C224  1  0.53444000  0.18442000  0.95950000  1.0
  C  C225  1  0.53444000  0.31558000  0.54050000  1.0
  C  C226  1  0.96556000  0.04050000  0.81558000  1.0
  C  C227  1  0.96556000  0.45950000  0.68442000  1.0
  C  C228  1  0.40249000  0.85620000  0.01224000  1.0
  C  C229  1  0.40249000  0.64381000  0.48776000  1.0
  C  C230  1  0.09751000  0.98776000  0.14381000  1.0
  C  C231  1  0.09751000  0.51224000  0.35620000  1.0
  C  C232  1  0.59749000  0.14378000  0.98777000  1.0
  C  C233  1  0.59749000  0.35622000  0.51223000  1.0
  C  C234  1  0.90251000  0.01223000  0.85622000  1.0
  C  C235  1  0.90251000  0.48777000  0.64378000  1.0
  C  C236  1  0.41926000  0.86543000  0.94732000  1.0
  C  C237  1  0.41926000  0.63457000  0.55268000  1.0
  C  C238  1  0.08074000  0.05268000  0.13457000  1.0
  C  C239  1  0.08074000  0.44732000  0.36543000  1.0
  C  C240  1  0.58072000  0.13454000  0.05268000  1.0
  C  C241  1  0.58073000  0.36546000  0.44732000  1.0
  C  C242  1  0.91928000  0.94732000  0.86546000  1.0
  C  C243  1  0.91928000  0.55268000  0.63454000  1.0
  C  C244  1  0.49609000  0.83325000  0.91287000  1.0
  C  C245  1  0.49609000  0.66675000  0.58713000  1.0
  C  C246  1  0.00391000  0.08713000  0.16675000  1.0
  C  C247  1  0.00391000  0.41287000  0.33325000  1.0
  C  C248  1  0.50390000  0.16673000  0.08713000  1.0
  C  C249  1  0.50390000  0.33333333  0.41286000  1.0
  C  C250  1  0.99610000  0.91286000  0.83327000  1.0
  C  C251  1  0.99610000  0.58714000  0.66672000  1.0
  C  C252  1  0.32096000  0.88991000  0.04878000  1.0
  C  C253  1  0.32096000  0.61009000  0.45122000  1.0
  C  C254  1  0.17904000  0.95122000  0.11009000  1.0
  C  C255  1  0.17904000  0.54878000  0.38991000  1.0
  C  C256  1  0.67903000  0.11007000  0.95123000  1.0
  C  C257  1  0.67903000  0.38994000  0.54877000  1.0
  C  C258  1  0.82097000  0.04877000  0.88993000  1.0
  C  C259  1  0.82097000  0.45123000  0.61007000  1.0
  S  S260  1  0.56499000  0.68419000  0.80117000  1.0
  S  S261  1  0.56499000  0.81581000  0.69883000  1.0
  S  S262  1  0.93501000  0.19883000  0.31581000  1.0
  S  S263  1  0.93501000  0.30117000  0.18419000  1.0
  S  S264  1  0.43506000  0.31581000  0.19883000  1.0
  S  S265  1  0.43506000  0.18419000  0.30117000  1.0
  S  S266  1  0.06494000  0.80117000  0.68419000  1.0
  S  S267  1  0.06494000  0.69883000  0.81581000  1.0
  S  S268  1  0.74887000  0.68528000  0.67557000  1.0
  S  S269  1  0.74887000  0.81472000  0.82443000  1.0
  S  S270  1  0.75113000  0.32443000  0.31472000  1.0
  S  S271  1  0.75113000  0.17557000  0.18528000  1.0
  S  S272  1  0.25117000  0.31472000  0.32442000  1.0
  S  S273  1  0.25117000  0.18528000  0.17558000  1.0
  S  S274  1  0.24883000  0.67558000  0.68528000  1.0
  S  S275  1  0.24883000  0.82442000  0.81472000  1.0
  I  I276  1  0.55808000  0.52292000  0.65854000  1.0
  I  I277  1  0.55808000  0.97708000  0.84146000  1.0
  I  I278  1  0.94192000  0.34147000  0.47708000  1.0
  I  I279  1  0.94192000  0.15853000  0.02292000  1.0
  I  I280  1  0.44194000  0.47710000  0.34148000  1.0
  I  I281  1  0.44194000  0.02290000  0.15852000  1.0
  I  I282  1  0.05806000  0.65852000  0.52290000  1.0
  I  I283  1  0.05806000  0.84148000  0.97710000  1.0
  N  N284  1  0.75414000  0.56630000  0.77920000  1.0
  N  N285  1  0.75413000  0.93370000  0.72080000  1.0
  N  N286  1  0.74587000  0.22080000  0.43370000  1.0
  N  N287  1  0.74587000  0.27920000  0.06630000  1.0
  N  N288  1  0.24592000  0.43370000  0.22080000  1.0
  N  N289  1  0.24592000  0.06630000  0.27920000  1.0
  N  N290  1  0.25408000  0.77920000  0.56630000  1.0
  N  N291  1  0.25408000  0.72080000  0.93370000  1.0
  N  N292  1  0.90576000  0.40994000  0.91490000  1.0
  N  N293  1  0.90576000  0.09006000  0.58510000  1.0
  N  N294  1  0.59424000  0.08509000  0.59006000  1.0
  N  N295  1  0.59424000  0.41490000  0.90994000  1.0
  N  N296  1  0.09429000  0.59007000  0.08512000  1.0
  N  N297  1  0.09429000  0.90993000  0.41488000  1.0
  N  N298  1  0.40571000  0.91488000  0.40993000  1.0
  N  N299  1  0.40571000  0.58512000  0.09007000  1.0
  N  N300  1  0.96376000  0.37812000  0.94897000  1.0
  N  N301  1  0.96376000  0.12188000  0.55103000  1.0
  N  N302  1  0.53624000  0.05103000  0.62188000  1.0
  N  N303  1  0.53623000  0.44897000  0.87812000  1.0
  N  N304  1  0.03628000  0.62189000  0.05105000  1.0
  N  N305  1  0.03629000  0.87811000  0.44895000  1.0
  N  N306  1  0.46372000  0.94895000  0.37811000  1.0
  N  N307  1  0.46371000  0.55106000  0.12189000  1.0
  N  N308  1  0.08281000  0.46199000  0.94859000  1.0
  N  N309  1  0.08281000  0.03801000  0.55141000  1.0
  N  N310  1  0.41719000  0.05141000  0.53801000  1.0
  N  N311  1  0.41719000  0.44859000  0.96199000  1.0
  N  N312  1  0.91722000  0.53803000  0.05146000  1.0
  N  N313  1  0.91722000  0.96197000  0.44855000  1.0
  N  N314  1  0.58278000  0.94854000  0.46197000  1.0
  N  N315  1  0.58278000  0.55146000  0.03804000  1.0
  N  N316  1  0.02488000  0.49357000  0.91400000  1.0
  N  N317  1  0.02488000  0.00643000  0.58600000  1.0
  N  N318  1  0.47512000  0.08599000  0.50643000  1.0
  N  N319  1  0.47512000  0.41400000  0.99357000  1.0
  N  N320  1  0.97515000  0.50645000  0.08604000  1.0
  N  N321  1  0.97515000  0.99355000  0.41396000  1.0
  N  N322  1  0.52485000  0.91396000  0.49355000  1.0
  N  N323  1  0.52485000  0.58604000  0.00645000  1.0
  N  N324  1  0.24735000  0.29969000  0.07032000  1.0
  N  N325  1  0.24735000  0.20031000  0.42968000  1.0
  N  N326  1  0.25265000  0.92968000  0.70031000  1.0
  N  N327  1  0.25265000  0.57032000  0.79969000  1.0
  N  N328  1  0.75271000  0.70032000  0.92969000  1.0
  N  N329  1  0.75271000  0.79968000  0.57031000  1.0
  N  N330  1  0.74729000  0.07030000  0.29968000  1.0
  N  N331  1  0.74729000  0.42969000  0.20032000  1.0
  N  N332  1  0.55732000  0.79461000  0.93998000  1.0
  N  N333  1  0.55732000  0.70539000  0.56002000  1.0
  N  N334  1  0.94268000  0.06002000  0.20539000  1.0
  N  N335  1  0.94268000  0.43998000  0.29461000  1.0
  N  N336  1  0.44268000  0.20538000  0.06002000  1.0
  N  N337  1  0.44268000  0.29462000  0.43997000  1.0
  N  N338  1  0.05732000  0.93997000  0.79462000  1.0
  N  N339  1  0.05732000  0.56003000  0.70538000  1.0
  N  N340  1  0.28563000  0.86593000  0.10098000  1.0
  N  N341  1  0.28563000  0.63407000  0.39902000  1.0
  N  N342  1  0.21437000  0.89902000  0.13407000  1.0
  N  N343  1  0.21437000  0.60098000  0.36593000  1.0
  N  N344  1  0.71436000  0.13406000  0.89903000  1.0
  N  N345  1  0.71436000  0.36595000  0.60097000  1.0
  N  N346  1  0.78564000  0.10097000  0.86594000  1.0
  N  N347  1  0.78564000  0.39903000  0.63406000  1.0
  N  N348  1  0.28716000  0.94385000  0.02611000  1.0
  N  N349  1  0.28716000  0.55615000  0.47389000  1.0
  N  N350  1  0.21284000  0.97389000  0.05615000  1.0
  N  N351  1  0.21284000  0.52611000  0.44385000  1.0
  N  N352  1  0.71284000  0.05613000  0.97390000  1.0
  N  N353  1  0.71284000  0.44387000  0.52610000  1.0
  N  N354  1  0.78716000  0.02610000  0.94387000  1.0
  N  N355  1  0.78716000  0.47390000  0.55613000  1.0
