# generated using pymatgen
data_H10PbC9NO4
_symmetry_space_group_name_H-M   'P 1'
_cell_length_a   13.79920000
_cell_length_b   14.43010000
_cell_length_c   15.81000000
_cell_angle_alpha   68.98290000
_cell_angle_beta   78.27590000
_cell_angle_gamma   76.77160000
_symmetry_Int_Tables_number   1
_chemical_formula_structural   H10PbC9NO4
_chemical_formula_sum   'H80 Pb8 C72 N8 O32'
_cell_volume   2835.20602826
_cell_formula_units_Z   8
loop_
 _symmetry_equiv_pos_site_id
 _symmetry_equiv_pos_as_xyz
  1  'x, y, z'
loop_
 _atom_site_type_symbol
 _atom_site_label
 _atom_site_symmetry_multiplicity
 _atom_site_fract_x
 _atom_site_fract_y
 _atom_site_fract_z
 _atom_site_occupancy
  H  H0  1  0.25908000  0.40147000  0.34599000  1.0
  H  H1  1  0.74094000  0.59863000  0.65402000  1.0
  H  H2  1  0.18283000  0.43012000  0.44153000  1.0
  H  H3  1  0.81717000  0.56991000  0.55850000  1.0
  H  H4  1  0.17022000  0.32340000  0.41214000  1.0
  H  H5  1  0.82980000  0.67668000  0.58781000  1.0
  H  H6  1  0.73220000  0.29103000  0.36002000  1.0
  H  H7  1  0.26781000  0.70899000  0.64002000  1.0
  H  H8  1  0.79026000  0.17107000  0.42860000  1.0
  H  H9  1  0.20974000  0.82894000  0.57144000  1.0
  H  H10  1  0.73911000  0.17935000  0.33144000  1.0
  H  H11  1  0.26092000  0.82066000  0.66858000  1.0
  H  H12  1  0.41710000  0.24622000  0.79291000  1.0
  H  H13  1  0.58296000  0.75373000  0.20710000  1.0
  H  H14  1  0.44218000  0.37136000  0.85797000  1.0
  H  H15  1  0.55788000  0.62859000  0.14203000  1.0
  H  H16  1  0.57950000  0.53184000  0.58802000  1.0
  H  H17  1  0.42048000  0.46817000  0.41198000  1.0
  H  H18  1  0.55030000  0.39794000  0.53556000  1.0
  H  H19  1  0.44967000  0.60207000  0.46444000  1.0
  H  H20  1  0.57961000  0.56736000  0.95520000  1.0
  H  H21  1  0.42036000  0.43263000  0.04482000  1.0
  H  H22  1  0.55546000  0.43315000  0.90025000  1.0
  H  H23  1  0.44448000  0.56684000  0.09978000  1.0
  H  H24  1  0.50556000  0.66568000  0.64048000  1.0
  H  H25  1  0.49444000  0.33431000  0.35953000  1.0
  H  H26  1  0.52517000  0.78999000  0.70908000  1.0
  H  H27  1  0.47484000  0.20999000  0.29093000  1.0
  H  H28  1  0.84628000  0.70031000  0.08715000  1.0
  H  H29  1  0.15372000  0.29966000  0.91283000  1.0
  H  H30  1  0.84239000  0.59177000  0.05670000  1.0
  H  H31  1  0.15760000  0.40821000  0.94329000  1.0
  H  H32  1  0.76548000  0.61358000  0.15475000  1.0
  H  H33  1  0.23451000  0.38640000  0.84523000  1.0
  H  H34  1  0.23770000  0.80900000  0.12703000  1.0
  H  H35  1  0.76233000  0.19100000  0.87305000  1.0
  H  H36  1  0.32208000  0.70748000  0.19080000  1.0
  H  H37  1  0.67796000  0.29247000  0.80922000  1.0
  H  H38  1  0.26848000  0.69095000  0.10529000  1.0
  H  H39  1  0.73148000  0.30907000  0.89474000  1.0
  H  H40  1  0.92238000  0.65895000  0.76890000  1.0
  H  H41  1  0.07762000  0.34108000  0.23108000  1.0
  H  H42  1  0.81245000  0.64957000  0.85439000  1.0
  H  H43  1  0.18755000  0.35045000  0.14559000  1.0
  H  H44  1  0.89312000  0.73337000  0.84290000  1.0
  H  H45  1  0.10687000  0.26665000  0.15709000  1.0
  H  H46  1  0.71966000  0.25882000  0.59153000  1.0
  H  H47  1  0.28039000  0.74115000  0.40844000  1.0
  H  H48  1  0.81941000  0.18514000  0.65500000  1.0
  H  H49  1  0.18057000  0.81484000  0.34507000  1.0
  H  H50  1  0.69544000  0.21265000  0.71302000  1.0
  H  H51  1  0.30450000  0.78741000  0.28694000  1.0
  H  H52  1  0.93171000  0.92191000  0.52841000  1.0
  H  H53  1  0.06830000  0.07817000  0.47157000  1.0
  H  H54  1  0.06588000  0.94599000  0.39351000  1.0
  H  H55  1  0.93411000  0.05408000  0.60646000  1.0
  H  H56  1  0.83422000  0.99634000  0.22569000  1.0
  H  H57  1  0.16579000  0.00364000  0.77430000  1.0
  H  H58  1  0.70982000  0.97646000  0.36710000  1.0
  H  H59  1  0.29019000  0.02354000  0.63290000  1.0
  H  H60  1  0.09771000  0.95042000  0.00843000  1.0
  H  H61  1  0.90231000  0.04951000  0.99158000  1.0
  H  H62  1  0.96535000  0.92119000  0.14458000  1.0
  H  H63  1  0.03467000  0.07875000  0.85544000  1.0
  H  H64  1  0.13006000  0.05613000  0.26259000  1.0
  H  H65  1  0.86995000  0.94389000  0.73737000  1.0
  H  H66  1  0.25231000  0.08195000  0.12118000  1.0
  H  H67  1  0.74769000  0.91806000  0.87878000  1.0
  H  H68  1  0.19350000  0.33254000  0.65211000  1.0
  H  H69  1  0.80649000  0.66746000  0.34787000  1.0
  H  H70  1  0.08061000  0.31388000  0.73325000  1.0
  H  H71  1  0.91939000  0.68613000  0.26675000  1.0
  H  H72  1  0.12301000  0.24126000  0.65849000  1.0
  H  H73  1  0.87696000  0.75874000  0.34150000  1.0
  H  H74  1  0.33453000  0.74025000  0.80614000  1.0
  H  H75  1  0.66548000  0.25967000  0.19395000  1.0
  H  H76  1  0.20449000  0.77737000  0.84558000  1.0
  H  H77  1  0.79550000  0.22260000  0.15444000  1.0
  H  H78  1  0.29079000  0.70972000  0.92521000  1.0
  H  H79  1  0.70916000  0.29027000  0.07487000  1.0
  Pb  Pb80  1  0.45356000  0.18299000  0.60184000  1.0
  Pb  Pb81  1  0.54644000  0.81701000  0.39816000  1.0
  Pb  Pb82  1  0.56051000  0.81622000  0.90154000  1.0
  Pb  Pb83  1  0.43948000  0.18377000  0.09846000  1.0
  Pb  Pb84  1  0.68400000  0.93183000  0.59090000  1.0
  Pb  Pb85  1  0.31601000  0.06818000  0.40909000  1.0
  Pb  Pb86  1  0.31544000  0.04078000  0.91972000  1.0
  Pb  Pb87  1  0.68454000  0.95920000  0.08024000  1.0
  C  C88  1  0.30267000  0.30267000  0.47416000  1.0
  C  C89  1  0.69734000  0.69736000  0.52583000  1.0
  C  C90  1  0.22230000  0.36843000  0.41592000  1.0
  C  C91  1  0.77771000  0.63162000  0.58407000  1.0
  C  C92  1  0.63108000  0.19058000  0.44873000  1.0
  C  C93  1  0.36891000  0.80944000  0.55127000  1.0
  C  C94  1  0.72879000  0.21036000  0.38713000  1.0
  C  C95  1  0.27122000  0.78965000  0.61289000  1.0
  C  C96  1  0.45321000  0.31030000  0.74998000  1.0
  C  C97  1  0.54683000  0.68966000  0.25001000  1.0
  C  C98  1  0.46694000  0.38063000  0.78592000  1.0
  C  C99  1  0.53309000  0.61934000  0.21410000  1.0
  C  C100  1  0.51252000  0.46298000  0.72843000  1.0
  C  C101  1  0.48748000  0.53701000  0.27156000  1.0
  C  C102  1  0.54236000  0.47043000  0.63619000  1.0
  C  C103  1  0.45762000  0.52957000  0.36381000  1.0
  C  C104  1  0.52629000  0.39628000  0.60611000  1.0
  C  C105  1  0.47371000  0.60371000  0.39387000  1.0
  C  C106  1  0.56172000  0.58546000  0.88642000  1.0
  C  C107  1  0.43825000  0.41453000  0.11360000  1.0
  C  C108  1  0.54863000  0.51134000  0.85486000  1.0
  C  C109  1  0.45134000  0.48865000  0.14515000  1.0
  C  C110  1  0.52827000  0.53866000  0.76480000  1.0
  C  C111  1  0.47173000  0.46132000  0.23522000  1.0
  C  C112  1  0.52221000  0.64038000  0.71049000  1.0
  C  C113  1  0.47780000  0.35960000  0.28951000  1.0
  C  C114  1  0.53398000  0.70980000  0.74838000  1.0
  C  C115  1  0.46603000  0.29018000  0.25164000  1.0
  C  C116  1  0.71403000  0.71069000  0.02898000  1.0
  C  C117  1  0.28596000  0.28930000  0.97100000  1.0
  C  C118  1  0.79856000  0.65057000  0.08433000  1.0
  C  C119  1  0.20143000  0.34941000  0.91565000  1.0
  C  C120  1  0.38632000  0.78134000  0.05477000  1.0
  C  C121  1  0.61368000  0.21865000  0.94525000  1.0
  C  C122  1  0.29728000  0.74544000  0.12298000  1.0
  C  C123  1  0.70273000  0.25455000  0.87705000  1.0
  C  C124  1  0.79956000  0.78390000  0.73736000  1.0
  C  C125  1  0.20046000  0.21612000  0.26262000  1.0
  C  C126  1  0.86116000  0.70014000  0.80439000  1.0
  C  C127  1  0.13884000  0.29987000  0.19560000  1.0
  C  C128  1  0.71063000  0.10304000  0.64583000  1.0
  C  C129  1  0.28937000  0.89695000  0.35418000  1.0
  C  C130  1  0.73868000  0.19508000  0.65295000  1.0
  C  C131  1  0.26132000  0.80492000  0.34705000  1.0
  C  C132  1  0.91376000  0.94016000  0.45964000  1.0
  C  C133  1  0.08624000  0.05990000  0.54033000  1.0
  C  C134  1  0.98786000  0.95295000  0.38422000  1.0
  C  C135  1  0.01214000  0.04709000  0.61576000  1.0
  C  C136  1  0.96055000  0.97307000  0.29771000  1.0
  C  C137  1  0.03945000  0.02694000  0.70228000  1.0
  C  C138  1  0.85908000  0.97975000  0.29150000  1.0
  C  C139  1  0.14093000  0.02025000  0.70849000  1.0
  C  C140  1  0.78972000  0.96815000  0.37018000  1.0
  C  C141  1  0.21028000  0.03186000  0.62980000  1.0
  C  C142  1  0.10014000  0.97446000  0.06582000  1.0
  C  C143  1  0.89987000  0.02549000  0.93419000  1.0
  C  C144  1  0.02707000  0.95829000  0.14204000  1.0
  C  C145  1  0.97294000  0.04168000  0.85796000  1.0
  C  C146  1  0.03588000  0.98792000  0.21523000  1.0
  C  C147  1  0.96413000  0.01207000  0.78476000  1.0
  C  C148  1  0.11882000  0.03258000  0.20766000  1.0
  C  C149  1  0.88119000  0.96743000  0.79231000  1.0
  C  C150  1  0.18791000  0.04652000  0.12878000  1.0
  C  C151  1  0.81209000  0.95348000  0.87119000  1.0
  C  C152  1  0.20897000  0.19665000  0.76842000  1.0
  C  C153  1  0.79102000  0.80336000  0.23155000  1.0
  C  C154  1  0.14760000  0.27743000  0.69917000  1.0
  C  C155  1  0.85239000  0.72258000  0.30081000  1.0
  C  C156  1  0.30440000  0.86408000  0.86025000  1.0
  C  C157  1  0.69558000  0.13589000  0.13977000  1.0
  C  C158  1  0.28231000  0.76709000  0.85780000  1.0
  C  C159  1  0.71767000  0.23287000  0.14225000  1.0
  N  N160  1  0.48233000  0.31771000  0.66168000  1.0
  N  N161  1  0.51768000  0.68226000  0.33833000  1.0
  N  N162  1  0.55354000  0.68313000  0.83458000  1.0
  N  N163  1  0.44643000  0.31686000  0.16543000  1.0
  N  N164  1  0.81645000  0.94845000  0.45279000  1.0
  N  N165  1  0.18355000  0.05159000  0.54719000  1.0
  N  N166  1  0.17889000  0.01839000  0.05879000  1.0
  N  N167  1  0.82111000  0.98157000  0.94120000  1.0
  O  O168  1  0.33123000  0.21095000  0.47718000  1.0
  O  O169  1  0.66876000  0.78908000  0.52279000  1.0
  O  O170  1  0.34155000  0.34117000  0.51790000  1.0
  O  O171  1  0.65847000  0.65884000  0.48211000  1.0
  O  O172  1  0.58308000  0.25985000  0.48260000  1.0
  O  O173  1  0.41692000  0.74015000  0.51741000  1.0
  O  O174  1  0.60088000  0.10797000  0.46650000  1.0
  O  O175  1  0.39911000  0.89204000  0.53349000  1.0
  O  O176  1  0.43924000  0.72018000  0.01358000  1.0
  O  O177  1  0.56077000  0.27981000  0.98645000  1.0
  O  O178  1  0.40696000  0.86721000  0.04123000  1.0
  O  O179  1  0.59302000  0.13280000  0.95875000  1.0
  O  O180  1  0.67875000  0.66879000  0.98580000  1.0
  O  O181  1  0.32124000  0.33119000  0.01418000  1.0
  O  O182  1  0.67859000  0.80101000  0.02781000  1.0
  O  O183  1  0.32141000  0.19898000  0.97217000  1.0
  O  O184  1  0.71643000  0.82960000  0.76754000  1.0
  O  O185  1  0.28355000  0.17038000  0.23243000  1.0
  O  O186  1  0.83257000  0.80820000  0.65211000  1.0
  O  O187  1  0.16747000  0.19186000  0.34788000  1.0
  O  O188  1  0.77603000  0.05257000  0.60082000  1.0
  O  O189  1  0.22396000  0.94743000  0.39920000  1.0
  O  O190  1  0.62453000  0.08010000  0.68114000  1.0
  O  O191  1  0.37546000  0.91988000  0.31887000  1.0
  O  O192  1  0.23628000  0.91211000  0.90547000  1.0
  O  O193  1  0.76370000  0.08787000  0.09454000  1.0
  O  O194  1  0.38672000  0.89415000  0.82046000  1.0
  O  O195  1  0.61325000  0.10581000  0.17954000  1.0
  O  O196  1  0.16485000  0.15439000  0.84812000  1.0
  O  O197  1  0.83514000  0.84563000  0.15186000  1.0
  O  O198  1  0.30290000  0.17131000  0.74543000  1.0
  O  O199  1  0.69709000  0.82870000  0.25453000  1.0
