# generated using pymatgen
data_V2CoH9C5N2O7
_symmetry_space_group_name_H-M   'P 1'
_cell_length_a   5.87486000
_cell_length_b   7.67252000
_cell_length_c   11.81660000
_cell_angle_alpha   97.10250000
_cell_angle_beta   102.83700000
_cell_angle_gamma   99.32330000
_symmetry_Int_Tables_number   1
_chemical_formula_structural   V2CoH9C5N2O7
_chemical_formula_sum   'V4 Co2 H18 C10 N4 O14'
_cell_volume   505.35681521
_cell_formula_units_Z   2
loop_
 _symmetry_equiv_pos_site_id
 _symmetry_equiv_pos_as_xyz
  1  'x, y, z'
loop_
 _atom_site_type_symbol
 _atom_site_label
 _atom_site_symmetry_multiplicity
 _atom_site_fract_x
 _atom_site_fract_y
 _atom_site_fract_z
 _atom_site_occupancy
  V  V0  1  0.71647000  0.21793000  0.29818000  1.0
  V  V1  1  0.27629000  0.79686000  0.69483000  1.0
  V  V2  1  0.77136000  0.92760000  0.59635000  1.0
  V  V3  1  0.21877000  0.07763000  0.39880000  1.0
  Co  Co4  1  0.00719000  0.64781000  0.42335000  1.0
  Co  Co5  1  0.99556000  0.35660000  0.57637000  1.0
  H  H6  1  0.52814000  0.74322000  0.28493000  1.0
  H  H7  1  0.49175000  0.26761000  0.72622000  1.0
  H  H8  1  0.47152000  0.77559000  0.04838000  1.0
  H  H9  1  0.53489000  0.22194000  0.96073000  1.0
  H  H10  1  0.13606000  0.63402000  0.17766000  1.0
  H  H11  1  0.87259000  0.36192000  0.82692000  1.0
  H  H12  1  0.72969000  0.65281000  0.89693000  1.0
  H  H13  1  0.26246000  0.33560000  0.10847000  1.0
  H  H14  1  0.03949000  0.68787000  0.96582000  1.0
  H  H15  1  0.95537000  0.30020000  0.03506000  1.0
  H  H16  1  0.92719000  0.93960000  0.86526000  1.0
  H  H17  1  0.06920000  0.04740000  0.13506000  1.0
  H  H18  1  0.72694000  0.97287000  0.95329000  1.0
  H  H19  1  0.26974000  0.01661000  0.04681000  1.0
  H  H20  1  0.44699000  0.61667000  0.41463000  1.0
  H  H21  1  0.55285000  0.37979000  0.58117000  1.0
  H  H22  1  0.28814000  0.43229000  0.41308000  1.0
  H  H23  1  0.70746000  0.56671000  0.58145000  1.0
  C  C24  1  0.64276000  0.72049000  0.22714000  1.0
  C  C25  1  0.37207000  0.28416000  0.78229000  1.0
  C  C26  1  0.61377000  0.73987000  0.11118000  1.0
  C  C27  1  0.39498000  0.25795000  0.89676000  1.0
  C  C28  1  0.96421000  0.66874000  0.17603000  1.0
  C  C29  1  0.04613000  0.32949000  0.82955000  1.0
  C  C30  1  0.87389000  0.73542000  0.96828000  1.0
  C  C31  1  0.12275000  0.25416000  0.03469000  1.0
  C  C32  1  0.89824000  0.93221000  0.95330000  1.0
  C  C33  1  0.09828000  0.05658000  0.04731000  1.0
  N  N34  1  0.86124000  0.67511000  0.26638000  1.0
  N  N35  1  0.15422000  0.32919000  0.74125000  1.0
  N  N36  1  0.81804000  0.70733000  0.08042000  1.0
  N  N37  1  0.18669000  0.28685000  0.92518000  1.0
  O  O38  1  0.84084000  0.40721000  0.40449000  1.0
  O  O39  1  0.15505000  0.61217000  0.58256000  1.0
  O  O40  1  0.29385000  0.53593000  0.37067000  1.0
  O  O41  1  0.70734000  0.46138000  0.62260000  1.0
  O  O42  1  0.18645000  0.88243000  0.45221000  1.0
  O  O43  1  0.80089000  0.11468000  0.53526000  1.0
  O  O44  1  0.71560000  0.74090000  0.49401000  1.0
  O  O45  1  0.27653000  0.25998000  0.50626000  1.0
  O  O46  1  0.66417000  0.27478000  0.16900000  1.0
  O  O47  1  0.33109000  0.72769000  0.82003000  1.0
  O  O48  1  0.94807000  0.08706000  0.30114000  1.0
  O  O49  1  0.04454000  0.92357000  0.69618000  1.0
  O  O50  1  0.44157000  0.09443000  0.31816000  1.0
  O  O51  1  0.55063000  0.92310000  0.67791000  1.0
