# generated using pymatgen
data_H15PbC15S(NO3)2
_symmetry_space_group_name_H-M   'P 1'
_cell_length_a   6.99778000
_cell_length_b   11.47190000
_cell_length_c   11.69540000
_cell_angle_alpha   114.13900000
_cell_angle_beta   92.56110000
_cell_angle_gamma   100.32500000
_symmetry_Int_Tables_number   1
_chemical_formula_structural   H15PbC15S(NO3)2
_chemical_formula_sum   'H30 Pb2 C30 S2 N4 O12'
_cell_volume   835.59772433
_cell_formula_units_Z   2
loop_
 _symmetry_equiv_pos_site_id
 _symmetry_equiv_pos_as_xyz
  1  'x, y, z'
loop_
 _atom_site_type_symbol
 _atom_site_label
 _atom_site_symmetry_multiplicity
 _atom_site_fract_x
 _atom_site_fract_y
 _atom_site_fract_z
 _atom_site_occupancy
  H  H0  1  0.37851000  0.53959000  0.06091000  1.0
  H  H1  1  0.62153000  0.46039000  0.93906000  1.0
  H  H2  1  0.13878000  0.42423000  0.14983000  1.0
  H  H3  1  0.86128000  0.57575000  0.85015000  1.0
  H  H4  1  0.85240000  0.51675000  0.23329000  1.0
  H  H5  1  0.14763000  0.48323000  0.76668000  1.0
  H  H6  1  0.80715000  0.72458000  0.22537000  1.0
  H  H7  1  0.19286000  0.27537000  0.77455000  1.0
  H  H8  1  0.73389000  0.77221000  0.84868000  1.0
  H  H9  1  0.26606000  0.22772000  0.15132000  1.0
  H  H10  1  0.44238000  0.61651000  0.71438000  1.0
  H  H11  1  0.55755000  0.38356000  0.28552000  1.0
  H  H12  1  0.79248000  0.51328000  0.40429000  1.0
  H  H13  1  0.20763000  0.48679000  0.59571000  1.0
  H  H14  1  0.06774000  0.68467000  0.55319000  1.0
  H  H15  1  0.93242000  0.31528000  0.44693000  1.0
  H  H16  1  0.62041000  0.96664000  0.70568000  1.0
  H  H17  1  0.37958000  0.03334000  0.29434000  1.0
  H  H18  1  0.51581000  0.68509000  0.34841000  1.0
  H  H19  1  0.48422000  0.31497000  0.65164000  1.0
  H  H20  1  0.42351000  0.81352000  0.33339000  1.0
  H  H21  1  0.57653000  0.18649000  0.66656000  1.0
  H  H22  1  0.30519000  0.73164000  0.42086000  1.0
  H  H23  1  0.69475000  0.26841000  0.57908000  1.0
  H  H24  1  0.84918000  0.98625000  0.59135000  1.0
  H  H25  1  0.15077000  0.01378000  0.40866000  1.0
  H  H26  1  0.75958000  0.97036000  0.43742000  1.0
  H  H27  1  0.24043000  0.02965000  0.56258000  1.0
  H  H28  1  0.84783000  0.84107000  0.45325000  1.0
  H  H29  1  0.15206000  0.15893000  0.54678000  1.0
  Pb  Pb30  1  0.20552000  0.92371000  0.86237000  1.0
  Pb  Pb31  1  0.79446000  0.07641000  0.13785000  1.0
  C  C32  1  0.00829000  0.86443000  0.12662000  1.0
  C  C33  1  0.99162000  0.13554000  0.87336000  1.0
  C  C34  1  0.06213000  0.74673000  0.13519000  1.0
  C  C35  1  0.93785000  0.25322000  0.86475000  1.0
  C  C36  1  0.22322000  0.69323000  0.08855000  1.0
  C  C37  1  0.77678000  0.30673000  0.91141000  1.0
  C  C38  1  0.25250000  0.57934000  0.09707000  1.0
  C  C39  1  0.74752000  0.42062000  0.90289000  1.0
  C  C40  1  0.11976000  0.51615000  0.14946000  1.0
  C  C41  1  0.88027000  0.48381000  0.85049000  1.0
  C  C42  1  0.96039000  0.56916000  0.19722000  1.0
  C  C43  1  0.03964000  0.43080000  0.80274000  1.0
  C  C44  1  0.93379000  0.68416000  0.19174000  1.0
  C  C45  1  0.06622000  0.31578000  0.80819000  1.0
  C  C46  1  0.73957000  0.71562000  0.74838000  1.0
  C  C47  1  0.26044000  0.28435000  0.25163000  1.0
  C  C48  1  0.57541000  0.62433000  0.67091000  1.0
  C  C49  1  0.42459000  0.37570000  0.32904000  1.0
  C  C50  1  0.58624000  0.54861000  0.54304000  1.0
  C  C51  1  0.41381000  0.45143000  0.45693000  1.0
  C  C52  1  0.76911000  0.56976000  0.50109000  1.0
  C  C53  1  0.23098000  0.43028000  0.49891000  1.0
  C  C54  1  0.92556000  0.66444000  0.58401000  1.0
  C  C55  1  0.07455000  0.33553000  0.41606000  1.0
  C  C56  1  0.51114000  0.89418000  0.62612000  1.0
  C  C57  1  0.48880000  0.10585000  0.37391000  1.0
  C  C58  1  0.44662000  0.76777000  0.39755000  1.0
  C  C59  1  0.55336000  0.23228000  0.60245000  1.0
  C  C60  1  0.76795000  0.91903000  0.49829000  1.0
  C  C61  1  0.23199000  0.08099000  0.50173000  1.0
  S  S62  1  0.39901000  0.76228000  0.01457000  1.0
  S  S63  1  0.60101000  0.23770000  0.98542000  1.0
  N  N64  1  0.91211000  0.73704000  0.70615000  1.0
  N  N65  1  0.08796000  0.26291000  0.29392000  1.0
  N  N66  1  0.57208000  0.86198000  0.51246000  1.0
  N  N67  1  0.42783000  0.13810000  0.48755000  1.0
  O  O68  1  0.98918000  0.87057000  0.02046000  1.0
  O  O69  1  0.01057000  0.12940000  0.97954000  1.0
  O  O70  1  0.97060000  0.95040000  0.22873000  1.0
  O  O71  1  0.02940000  0.04955000  0.77130000  1.0
  O  O72  1  0.30933000  0.71704000  0.88192000  1.0
  O  O73  1  0.69072000  0.28297000  0.11808000  1.0
  O  O74  1  0.57532000  0.71431000  0.02404000  1.0
  O  O75  1  0.42473000  0.28572000  0.97597000  1.0
  O  O76  1  0.42695000  0.90680000  0.08393000  1.0
  O  O77  1  0.57297000  0.09318000  0.91610000  1.0
  O  O78  1  0.34376000  0.84780000  0.64354000  1.0
  O  O79  1  0.65622000  0.15223000  0.35652000  1.0
