# generated using pymatgen
data_CuPH19C21IN
_symmetry_space_group_name_H-M   'P 1'
_cell_length_a   8.21864000
_cell_length_b   9.17730000
_cell_length_c   14.20040000
_cell_angle_alpha   79.07030000
_cell_angle_beta   76.91670000
_cell_angle_gamma   63.77120000
_symmetry_Int_Tables_number   1
_chemical_formula_structural   CuPH19C21IN
_chemical_formula_sum   'Cu2 P2 H38 C42 I2 N2'
_cell_volume   930.91426721
_cell_formula_units_Z   2
loop_
 _symmetry_equiv_pos_site_id
 _symmetry_equiv_pos_as_xyz
  1  'x, y, z'
loop_
 _atom_site_type_symbol
 _atom_site_label
 _atom_site_symmetry_multiplicity
 _atom_site_fract_x
 _atom_site_fract_y
 _atom_site_fract_z
 _atom_site_occupancy
  Cu  Cu0  1  0.48467000  0.33614000  0.58086000  1.0
  Cu  Cu1  1  0.51533000  0.66386000  0.41914000  1.0
  P  P2  1  0.51319000  0.33732000  0.73227000  1.0
  P  P3  1  0.48681000  0.66268000  0.26772000  1.0
  H  H4  1  0.24941000  0.91607000  0.54898000  1.0
  H  H5  1  0.75059000  0.08393000  0.45102000  1.0
  H  H6  1  0.21818000  0.18760000  0.69657000  1.0
  H  H7  1  0.78182000  0.81240000  0.30343000  1.0
  H  H8  1  0.07387000  0.15095000  0.63625000  1.0
  H  H9  1  0.92613000  0.84905000  0.36375000  1.0
  H  H10  1  0.12763000  0.32345000  0.59610000  1.0
  H  H11  1  0.87237000  0.67655000  0.40390000  1.0
  H  H12  1  0.50102000  0.12461000  0.92144000  1.0
  H  H13  1  0.49898000  0.87539000  0.07856000  1.0
  H  H14  1  0.23563000  0.12024000  0.04719000  1.0
  H  H15  1  0.76437000  0.87975000  0.95281000  1.0
  H  H16  1  0.91829000  0.31160000  0.02453000  1.0
  H  H17  1  0.08171000  0.68839000  0.97547000  1.0
  H  H18  1  0.86158000  0.50611000  0.87361000  1.0
  H  H19  1  0.13842000  0.49389000  0.12639000  1.0
  H  H20  1  0.12469000  0.50645000  0.74696000  1.0
  H  H21  1  0.87531000  0.49355000  0.25304000  1.0
  H  H22  1  0.40917000  0.48434000  0.91963000  1.0
  H  H23  1  0.59083000  0.51566000  0.08037000  1.0
  H  H24  1  0.43195000  0.72408000  0.96243000  1.0
  H  H25  1  0.56805000  0.27591000  0.03757000  1.0
  H  H26  1  0.55698000  0.89207000  0.83493000  1.0
  H  H27  1  0.44302000  0.10793000  0.16507000  1.0
  H  H28  1  0.66198000  0.81644000  0.66496000  1.0
  H  H29  1  0.33802000  0.18356000  0.33504000  1.0
  H  H30  1  0.63758000  0.57831000  0.62207000  1.0
  H  H31  1  0.36242000  0.42169000  0.37793000  1.0
  H  H32  1  0.77243000  0.27770000  0.87123000  1.0
  H  H33  1  0.22757000  0.72231000  0.12877000  1.0
  H  H34  1  0.06288000  0.04066000  0.90147000  1.0
  H  H35  1  0.93712000  0.95934000  0.09853000  1.0
  H  H36  1  0.18055000  0.79603000  0.81127000  1.0
  H  H37  1  0.81945000  0.20397000  0.18873000  1.0
  H  H38  1  0.00535000  0.78938000  0.69191000  1.0
  H  H39  1  0.99465000  0.21062000  0.30809000  1.0
  H  H40  1  0.71764000  0.03078000  0.65925000  1.0
  H  H41  1  0.28236000  0.96922000  0.34075000  1.0
  C  C42  1  0.34769000  0.09484000  0.55927000  1.0
  C  C43  1  0.65230000  0.90516000  0.44073000  1.0
  C  C44  1  0.36162000  0.95481000  0.52675000  1.0
  C  C45  1  0.63838000  0.04519000  0.47325000  1.0
  C  C46  1  0.18214000  0.19410000  0.62541000  1.0
  C  C47  1  0.81786000  0.80591000  0.37459000  1.0
  C  C48  1  0.32986000  0.31641000  0.82638000  1.0
  C  C49  1  0.67014000  0.68360000  0.17362000  1.0
  C  C50  1  0.36066000  0.20680000  0.91065000  1.0
  C  C51  1  0.63934000  0.79320000  0.08935000  1.0
  C  C52  1  0.21233000  0.20476000  0.98132000  1.0
  C  C53  1  0.78767000  0.79524000  0.01869000  1.0
  C  C54  1  0.03304000  0.31243000  0.96843000  1.0
  C  C55  1  0.96696000  0.68757000  0.03157000  1.0
  C  C56  1  0.00120000  0.42145000  0.88427000  1.0
  C  C57  1  0.99880000  0.57855000  0.11574000  1.0
  C  C58  1  0.14864000  0.42282000  0.81337000  1.0
  C  C59  1  0.85136000  0.57718000  0.18663000  1.0
  C  C60  1  0.52364000  0.51455000  0.76790000  1.0
  C  C61  1  0.47636000  0.48545000  0.23209000  1.0
  C  C62  1  0.46634000  0.55625000  0.86391000  1.0
  C  C63  1  0.53366000  0.44375000  0.13608000  1.0
  C  C64  1  0.47867000  0.69139000  0.88797000  1.0
  C  C65  1  0.52134000  0.30861000  0.11203000  1.0
  C  C66  1  0.54852000  0.78592000  0.81655000  1.0
  C  C67  1  0.45148000  0.21408000  0.18345000  1.0
  C  C68  1  0.60641000  0.74426000  0.72123000  1.0
  C  C69  1  0.39359000  0.25575000  0.27877000  1.0
  C  C70  1  0.59346000  0.60999000  0.69675000  1.0
  C  C71  1  0.40653000  0.39001000  0.30325000  1.0
  C  C72  1  0.72353000  0.16778000  0.76470000  1.0
  C  C73  1  0.27647000  0.83222000  0.23530000  1.0
  C  C74  1  0.82159000  0.16989000  0.83305000  1.0
  C  C75  1  0.17841000  0.83011000  0.16695000  1.0
  C  C76  1  0.98541000  0.03616000  0.84991000  1.0
  C  C77  1  0.01459000  0.96384000  0.15009000  1.0
  C  C78  1  0.05124000  0.89910000  0.79954000  1.0
  C  C79  1  0.94876000  0.10090000  0.20046000  1.0
  C  C80  1  0.95295000  0.89500000  0.73259000  1.0
  C  C81  1  0.04705000  0.10500000  0.26741000  1.0
  C  C82  1  0.79151000  0.02963000  0.71440000  1.0
  C  C83  1  0.20849000  0.97036000  0.28559000  1.0
  I  I84  1  0.21583000  0.62018000  0.52901000  1.0
  I  I85  1  0.78417000  0.37982000  0.47100000  1.0
  N  N86  1  0.48949000  0.14093000  0.53170000  1.0
  N  N87  1  0.51051000  0.85908000  0.46830000  1.0
