# generated using pymatgen
data_ZnH14C20N6O7
_symmetry_space_group_name_H-M   'P 1'
_cell_length_a   8.06970000
_cell_length_b   11.24100000
_cell_length_c   11.40560000
_cell_angle_alpha   83.00700000
_cell_angle_beta   87.20400000
_cell_angle_gamma   77.08930000
_symmetry_Int_Tables_number   1
_chemical_formula_structural   ZnH14C20N6O7
_chemical_formula_sum   'Zn2 H28 C40 N12 O14'
_cell_volume   1000.71244498
_cell_formula_units_Z   2
loop_
 _symmetry_equiv_pos_site_id
 _symmetry_equiv_pos_as_xyz
  1  'x, y, z'
loop_
 _atom_site_type_symbol
 _atom_site_label
 _atom_site_symmetry_multiplicity
 _atom_site_fract_x
 _atom_site_fract_y
 _atom_site_fract_z
 _atom_site_occupancy
  Zn  Zn0  1  0.41812000  0.18839000  0.92836000  1.0
  Zn  Zn1  1  0.58188000  0.81161000  0.07164000  1.0
  H  H2  1  0.43322000  0.03993000  0.76660000  1.0
  H  H3  1  0.56678000  0.96007000  0.23340000  1.0
  H  H4  1  0.43005000  0.17871000  0.71125000  1.0
  H  H5  1  0.56994000  0.82129000  0.28875000  1.0
  H  H6  1  0.17472000  0.43195000  0.83289000  1.0
  H  H7  1  0.82528000  0.56806000  0.16712000  1.0
  H  H8  1  0.86283000  0.52564000  0.83921000  1.0
  H  H9  1  0.13717000  0.47436000  0.16079000  1.0
  H  H10  1  0.67001000  0.41000000  0.96501000  1.0
  H  H11  1  0.32999000  0.59000000  0.03499000  1.0
  H  H12  1  0.79643000  0.21188000  0.07961000  1.0
  H  H13  1  0.20356000  0.78812000  0.92039000  1.0
  H  H14  1  0.23743000  0.85221000  0.25509000  1.0
  H  H15  1  0.76257000  0.14780000  0.74491000  1.0
  H  H16  1  0.85718000  0.32065000  0.39094000  1.0
  H  H17  1  0.14282000  0.67934000  0.60906000  1.0
  H  H18  1  0.68245000  0.19075000  0.51228000  1.0
  H  H19  1  0.31755000  0.80925000  0.48772000  1.0
  H  H20  1  0.71002000  0.97214000  0.46782000  1.0
  H  H21  1  0.28998000  0.02786000  0.53218000  1.0
  H  H22  1  0.90523000  0.89608000  0.30352000  1.0
  H  H23  1  0.09477000  0.10392000  0.69647000  1.0
  H  H24  1  0.53454000  0.42942000  0.15712000  1.0
  H  H25  1  0.46546000  0.57058000  0.84287000  1.0
  H  H26  1  0.29810000  0.57912000  0.46892000  1.0
  H  H27  1  0.70189000  0.42088000  0.53108000  1.0
  H  H28  1  0.26602000  0.21471000  0.40265000  1.0
  H  H29  1  0.73398000  0.78529000  0.59735000  1.0
  C  C30  1  0.05341000  0.21889000  0.01785000  1.0
  C  C31  1  0.94659000  0.78111000  0.98215000  1.0
  C  C32  1  0.08675000  0.38695000  0.88691000  1.0
  C  C33  1  0.91325000  0.61305000  0.11310000  1.0
  C  C34  1  0.91295000  0.43823000  0.89113000  1.0
  C  C35  1  0.08705000  0.56177000  0.10887000  1.0
  C  C36  1  0.80720000  0.37534000  0.96178000  1.0
  C  C37  1  0.19280000  0.62466000  0.03822000  1.0
  C  C38  1  0.87796000  0.26358000  0.02651000  1.0
  C  C39  1  0.12204000  0.73642000  0.97349000  1.0
  C  C40  1  0.14309000  0.09905000  0.07270000  1.0
  C  C41  1  0.85691000  0.90095000  0.92730000  1.0
  C  C42  1  0.22631000  0.92452000  0.18175000  1.0
  C  C43  1  0.77369000  0.07548000  0.81825000  1.0
  C  C44  1  0.98417000  0.06986000  0.26690000  1.0
  C  C45  1  0.01583000  0.93014000  0.73310000  1.0
  C  C46  1  0.86551000  0.22561000  0.37545000  1.0
  C  C47  1  0.13450000  0.77439000  0.62455000  1.0
  C  C48  1  0.76919000  0.15230000  0.44328000  1.0
  C  C49  1  0.23081000  0.84770000  0.55672000  1.0
  C  C50  1  0.78506000  0.03179000  0.41875000  1.0
  C  C51  1  0.21494000  0.96821000  0.58125000  1.0
  C  C52  1  0.89538000  0.98804000  0.32778000  1.0
  C  C53  1  0.10463000  0.01196000  0.67222000  1.0
  C  C54  1  0.40906000  0.30966000  0.27347000  1.0
  C  C55  1  0.59093000  0.69034000  0.72653000  1.0
  C  C56  1  0.46326000  0.41895000  0.23982000  1.0
  C  C57  1  0.53674000  0.58106000  0.76018000  1.0
  C  C58  1  0.42525000  0.51584000  0.31007000  1.0
  C  C59  1  0.57474000  0.48416000  0.68993000  1.0
  C  C60  1  0.32939000  0.50419000  0.41435000  1.0
  C  C61  1  0.67060000  0.49581000  0.58565000  1.0
  C  C62  1  0.27210000  0.39623000  0.44490000  1.0
  C  C63  1  0.72790000  0.60377000  0.55510000  1.0
  C  C64  1  0.31184000  0.29815000  0.37722000  1.0
  C  C65  1  0.68816000  0.70185000  0.62278000  1.0
  C  C66  1  0.44784000  0.20554000  0.19696000  1.0
  C  C67  1  0.55216000  0.79446000  0.80304000  1.0
  C  C68  1  0.47754000  0.63529000  0.27106000  1.0
  C  C69  1  0.52246000  0.36471000  0.72894000  1.0
  N  N70  1  0.15578000  0.27974000  0.94866000  1.0
  N  N71  1  0.84422000  0.72026000  0.05134000  1.0
  N  N72  1  0.28332000  0.03752000  0.02296000  1.0
  N  N73  1  0.71668000  0.96248000  0.97704000  1.0
  N  N74  1  0.33449000  0.92820000  0.09149000  1.0
  N  N75  1  0.66551000  0.07180000  0.90851000  1.0
  N  N76  1  0.10313000  0.03037000  0.17377000  1.0
  N  N77  1  0.89687000  0.96963000  0.82623000  1.0
  N  N78  1  0.97318000  0.18535000  0.28824000  1.0
  N  N79  1  0.02682000  0.81465000  0.71176000  1.0
  N  N80  1  0.16335000  0.38669000  0.55075000  1.0
  N  N81  1  0.83665000  0.61331000  0.44926000  1.0
  O  O82  1  0.48279000  0.23622000  0.08813000  1.0
  O  O83  1  0.51721000  0.76378000  0.91187000  1.0
  O  O84  1  0.44093000  0.10000000  0.24566000  1.0
  O  O85  1  0.55908000  0.90000000  0.75434000  1.0
  O  O86  1  0.52728000  0.65074000  0.16314000  1.0
  O  O87  1  0.47272000  0.34926000  0.83686000  1.0
  O  O88  1  0.46519000  0.71217000  0.34550000  1.0
  O  O89  1  0.53481000  0.28783000  0.65450000  1.0
  O  O90  1  0.13625000  0.47266000  0.61351000  1.0
  O  O91  1  0.86375000  0.52733000  0.38650000  1.0
  O  O92  1  0.10181000  0.29445000  0.57220000  1.0
  O  O93  1  0.89820000  0.70554000  0.42779000  1.0
  O  O94  1  0.36741000  0.12672000  0.76645000  1.0
  O  O95  1  0.63259000  0.87328000  0.23355000  1.0
