# generated using pymatgen
data_CoH22C22(N2O3)2
_symmetry_space_group_name_H-M   'P 1'
_cell_length_a   6.61160000
_cell_length_b   8.52083000
_cell_length_c   9.84009000
_cell_angle_alpha   96.12180000
_cell_angle_beta   94.59430000
_cell_angle_gamma   94.59220000
_symmetry_Int_Tables_number   1
_chemical_formula_structural   CoH22C22(N2O3)2
_chemical_formula_sum   'Co1 H22 C22 N4 O6'
_cell_volume   547.22212246
_cell_formula_units_Z   1
loop_
 _symmetry_equiv_pos_site_id
 _symmetry_equiv_pos_as_xyz
  1  'x, y, z'
loop_
 _atom_site_type_symbol
 _atom_site_label
 _atom_site_symmetry_multiplicity
 _atom_site_fract_x
 _atom_site_fract_y
 _atom_site_fract_z
 _atom_site_occupancy
  Co  Co0  1  0.50000000  0.50000000  0.50000000  1.0
  H  H1  1  0.20784000  0.67403000  0.86679000  1.0
  H  H2  1  0.79216000  0.32597000  0.13321000  1.0
  H  H3  1  0.51321000  0.26016000  0.25075000  1.0
  H  H4  1  0.48679000  0.73984000  0.74925000  1.0
  H  H5  1  0.80232000  0.85782000  0.38125000  1.0
  H  H6  1  0.19768000  0.14218000  0.61875000  1.0
  H  H7  1  0.82997000  0.99333000  0.61986000  1.0
  H  H8  1  0.17003000  0.00667000  0.38014000  1.0
  H  H9  1  0.69081000  0.25755000  0.66295000  1.0
  H  H10  1  0.30919000  0.74244000  0.33705000  1.0
  H  H11  1  0.34850000  0.60996000  0.09593000  1.0
  H  H12  1  0.65151000  0.39004000  0.90407000  1.0
  H  H13  1  0.73221000  0.79878000  0.00412000  1.0
  H  H14  1  0.26778000  0.20122000  0.99588000  1.0
  H  H15  1  0.73143000  0.74331000  0.17448000  1.0
  H  H16  1  0.26857000  0.25668000  0.82552000  1.0
  H  H17  1  0.92587000  0.88081000  0.13530000  1.0
  H  H18  1  0.07413000  0.11919000  0.86470000  1.0
  H  H19  1  0.16265000  0.49926000  0.62722000  1.0
  H  H20  1  0.83735000  0.50074000  0.37278000  1.0
  H  H21  1  0.14626000  0.37757000  0.49430000  1.0
  H  H22  1  0.85373000  0.62243000  0.50570000  1.0
  C  C23  1  0.65667000  0.04902000  0.29473000  1.0
  C  C24  1  0.34333000  0.95098000  0.70527000  1.0
  C  C25  1  0.07788000  0.46540000  0.12889000  1.0
  C  C26  1  0.92213000  0.53460000  0.87110000  1.0
  C  C27  1  0.11811000  0.59744000  0.92555000  1.0
  C  C28  1  0.88190000  0.40256000  0.07445000  1.0
  C  C29  1  0.58415000  0.19710000  0.32969000  1.0
  C  C30  1  0.41585000  0.80290000  0.67031000  1.0
  C  C31  1  0.74843000  0.97485000  0.40125000  1.0
  C  C32  1  0.25157000  0.02515000  0.59875000  1.0
  C  C33  1  0.15838000  0.43117000  0.26817000  1.0
  C  C34  1  0.84162000  0.56884000  0.73182000  1.0
  C  C35  1  0.63632000  0.97533000  0.15089000  1.0
  C  C36  1  0.36367000  0.02467000  0.84911000  1.0
  C  C37  1  0.76213000  0.04945000  0.53502000  1.0
  C  C38  1  0.23787000  0.95055000  0.46498000  1.0
  C  C39  1  0.68505000  0.19548000  0.55991000  1.0
  C  C40  1  0.31495000  0.80452000  0.44009000  1.0
  C  C41  1  0.19570000  0.56284000  0.05337000  1.0
  C  C42  1  0.80430000  0.43716000  0.94662000  1.0
  C  C43  1  0.76266000  0.84169000  0.11300000  1.0
  C  C44  1  0.23734000  0.15831000  0.88700000  1.0
  N  N45  1  0.59733000  0.26913000  0.45846000  1.0
  N  N46  1  0.40267000  0.73087000  0.54154000  1.0
  N  N47  1  0.50736000  0.03462000  0.06707000  1.0
  N  N48  1  0.49264000  0.96538000  0.93294000  1.0
  O  O49  1  0.03442000  0.36537000  0.34266000  1.0
  O  O50  1  0.96558000  0.63463000  0.65734000  1.0
  O  O51  1  0.34618000  0.47311000  0.30520000  1.0
  O  O52  1  0.65382000  0.52689000  0.69480000  1.0
  O  O53  1  0.23320000  0.41075000  0.58454000  1.0
  O  O54  1  0.76680000  0.58926000  0.41545000  1.0
