# generated using pymatgen
data_CdSi2H36C32(N2Cl)2
_symmetry_space_group_name_H-M   'P 1'
_cell_length_a   8.39541000
_cell_length_b   9.27298000
_cell_length_c   13.23209037
_cell_angle_alpha   76.99320670
_cell_angle_beta   71.89169030
_cell_angle_gamma   75.56300000
_symmetry_Int_Tables_number   1
_chemical_formula_structural   CdSi2H36C32(N2Cl)2
_chemical_formula_sum   'Cd1 Si2 H36 C32 N4 Cl2'
_cell_volume   935.91924843
_cell_formula_units_Z   1
loop_
 _symmetry_equiv_pos_site_id
 _symmetry_equiv_pos_as_xyz
  1  'x, y, z'
loop_
 _atom_site_type_symbol
 _atom_site_label
 _atom_site_symmetry_multiplicity
 _atom_site_fract_x
 _atom_site_fract_y
 _atom_site_fract_z
 _atom_site_occupancy
  Cd  Cd0  1  0.00000000  0.00000000  0.00000000  1.0
  Si  Si1  1  0.20751000  0.30430000  0.33978000  1.0
  Si  Si2  1  0.79248000  0.69570000  0.66023000  1.0
  H  H3  1  0.00317000  0.63821000  0.02935000  1.0
  H  H4  1  0.99684000  0.36179000  0.97064000  1.0
  H  H5  1  0.08795000  0.38852000  0.13937000  1.0
  H  H6  1  0.91207000  0.61147000  0.86062000  1.0
  H  H7  1  0.19627000  0.63645000  0.34379000  1.0
  H  H8  1  0.80371000  0.36356000  0.65621000  1.0
  H  H9  1  0.12612000  0.87161000  0.21629000  1.0
  H  H10  1  0.87386000  0.12840000  0.78371000  1.0
  H  H11  1  0.83196000  0.26136000  0.14620000  1.0
  H  H12  1  0.16805000  0.73864000  0.85380000  1.0
  H  H13  1  0.55253000  0.38507000  0.25689000  1.0
  H  H14  1  0.44748000  0.61493000  0.74311000  1.0
  H  H15  1  0.34139000  0.01269000  0.24001000  1.0
  H  H16  1  0.65864000  0.98730000  0.75999000  1.0
  H  H17  1  0.62646000  0.91307000  0.12310000  1.0
  H  H18  1  0.37355000  0.08693000  0.87691000  1.0
  H  H19  1  0.04855000  0.15628000  0.28961000  1.0
  H  H20  1  0.95145000  0.84371000  0.71038000  1.0
  H  H21  1  0.06413000  0.08779000  0.42465000  1.0
  H  H22  1  0.93587000  0.91220000  0.57535000  1.0
  H  H23  1  0.81996000  0.37663000  0.35177000  1.0
  H  H24  1  0.18003000  0.62336000  0.64822000  1.0
  H  H25  1  0.79159000  0.15788000  0.56705000  1.0
  H  H26  1  0.20841000  0.84212000  0.43295000  1.0
  H  H27  1  0.63212000  0.32512000  0.53142000  1.0
  H  H28  1  0.36789000  0.67487000  0.46858000  1.0
  H  H29  1  0.30209000  0.42554000  0.45500000  1.0
  H  H30  1  0.69789000  0.57448000  0.54500000  1.0
  H  H31  1  0.10296000  0.37056000  0.52215000  1.0
  H  H32  1  0.89702000  0.62943000  0.47785000  1.0
  H  H33  1  0.46208000  0.16968000  0.49629000  1.0
  H  H34  1  0.53791000  0.83033000  0.50373000  1.0
  H  H35  1  0.10885000  0.09610000  0.62422000  1.0
  H  H36  1  0.89113000  0.90392000  0.37576000  1.0
  H  H37  1  0.32245000  0.97994000  0.62743000  1.0
  H  H38  1  0.67752000  0.02006000  0.37257000  1.0
  C  C39  1  0.05081000  0.63042000  0.09883000  1.0
  C  C40  1  0.94919000  0.36957000  0.90118000  1.0
  C  C41  1  0.09402000  0.49296000  0.16228000  1.0
  C  C42  1  0.90598000  0.50705000  0.83771000  1.0
  C  C43  1  0.14806000  0.49016000  0.25331000  1.0
  C  C44  1  0.85194000  0.50984000  0.74669000  1.0
  C  C45  1  0.15757000  0.62912000  0.27396000  1.0
  C  C46  1  0.84242000  0.37089000  0.72603000  1.0
  C  C47  1  0.11618000  0.76144000  0.20478000  1.0
  C  C48  1  0.88381000  0.23855000  0.79523000  1.0
  C  C49  1  0.71790000  0.21237000  0.16827000  1.0
  C  C50  1  0.28213000  0.78763000  0.83172000  1.0
  C  C51  1  0.56219000  0.27837000  0.23136000  1.0
  C  C52  1  0.43781000  0.72163000  0.76865000  1.0
  C  C53  1  0.42035000  0.20854000  0.25984000  1.0
  C  C54  1  0.57967000  0.79146000  0.74015000  1.0
  C  C55  1  0.44566000  0.07235000  0.22275000  1.0
  C  C56  1  0.55435000  0.92765000  0.77726000  1.0
  C  C57  1  0.60472000  0.01499000  0.15767000  1.0
  C  C58  1  0.39531000  0.98501000  0.84233000  1.0
  C  C59  1  0.03636000  0.19020000  0.36705000  1.0
  C  C60  1  0.96366000  0.80979000  0.63294000  1.0
  C  C61  1  0.86242000  0.27973000  0.40845000  1.0
  C  C62  1  0.13757000  0.72026000  0.59155000  1.0
  C  C63  1  0.75760000  0.25362000  0.50735000  1.0
  C  C64  1  0.24239000  0.74638000  0.49266000  1.0
  C  C65  1  0.23182000  0.33367000  0.47079000  1.0
  C  C66  1  0.76817000  0.66633000  0.52920000  1.0
  C  C67  1  0.32242000  0.18980000  0.52302000  1.0
  C  C68  1  0.67757000  0.81020000  0.47698000  1.0
  C  C69  1  0.24742000  0.08347000  0.59495000  1.0
  C  C70  1  0.75255000  0.91653000  0.40505000  1.0
  N  N71  1  0.06263000  0.76268000  0.11902000  1.0
  N  N72  1  0.93737000  0.23733000  0.88097000  1.0
  N  N73  1  0.73841000  0.08382000  0.13078000  1.0
  N  N74  1  0.26160000  0.91618000  0.86923000  1.0
  Cl  Cl75  1  0.83956000  0.86906000  0.91916000  1.0
  Cl  Cl76  1  0.16046000  0.13094000  0.08083000  1.0
