# generated using pymatgen
data_DyH13(CO)10
_symmetry_space_group_name_H-M   'P 1'
_cell_length_a   6.34039000
_cell_length_b   13.17710000
_cell_length_c   17.54600000
_cell_angle_alpha   71.51930000
_cell_angle_beta   82.54050000
_cell_angle_gamma   88.71490000
_symmetry_Int_Tables_number   1
_chemical_formula_structural   DyH13(CO)10
_chemical_formula_sum   'Dy4 H52 C40 O40'
_cell_volume   1378.29506575
_cell_formula_units_Z   4
loop_
 _symmetry_equiv_pos_site_id
 _symmetry_equiv_pos_as_xyz
  1  'x, y, z'
loop_
 _atom_site_type_symbol
 _atom_site_label
 _atom_site_symmetry_multiplicity
 _atom_site_fract_x
 _atom_site_fract_y
 _atom_site_fract_z
 _atom_site_occupancy
  Dy  Dy0  1  0.45472000  0.39734000  0.41199000  1.0
  Dy  Dy1  1  0.54528000  0.60266000  0.58801000  1.0
  Dy  Dy2  1  0.53739000  0.12047000  0.05918000  1.0
  Dy  Dy3  1  0.46261000  0.87953000  0.94082000  1.0
  H  H4  1  0.55255000  0.01142000  0.28671000  1.0
  H  H5  1  0.44745000  0.98858000  0.71329000  1.0
  H  H6  1  0.77494000  0.47986000  0.77552000  1.0
  H  H7  1  0.22507000  0.52014000  0.22448000  1.0
  H  H8  1  0.89731000  0.32582000  0.45179000  1.0
  H  H9  1  0.10268000  0.67418000  0.54820000  1.0
  H  H10  1  0.77604000  0.37430000  0.51820000  1.0
  H  H11  1  0.22396000  0.62570000  0.48179000  1.0
  H  H12  1  0.52841000  0.38669000  0.23917000  1.0
  H  H13  1  0.47160000  0.61330000  0.76083000  1.0
  H  H14  1  0.59649000  0.27781000  0.29941000  1.0
  H  H15  1  0.40351000  0.72218000  0.70059000  1.0
  H  H16  1  0.22222000  0.11579000  0.95401000  1.0
  H  H17  1  0.77778000  0.88421000  0.04599000  1.0
  H  H18  1  0.10528000  0.17978000  0.01139000  1.0
  H  H19  1  0.89472000  0.82022000  0.98861000  1.0
  H  H20  1  0.33961000  0.17725000  0.20228000  1.0
  H  H21  1  0.66040000  0.82275000  0.79772000  1.0
  H  H22  1  0.41459000  0.29149000  0.13710000  1.0
  H  H23  1  0.58541000  0.70850000  0.86290000  1.0
  H  H24  1  0.97462000  0.62633000  0.25135000  1.0
  H  H25  1  0.02538000  0.37367000  0.74865000  1.0
  H  H26  1  0.95852000  0.73649000  0.38138000  1.0
  H  H27  1  0.04148000  0.26351000  0.61862000  1.0
  H  H28  1  0.67329000  0.75786000  0.24899000  1.0
  H  H29  1  0.32670000  0.24215000  0.75101000  1.0
  H  H30  1  0.64624000  0.82639000  0.32200000  1.0
  H  H31  1  0.35376000  0.17361000  0.67800000  1.0
  H  H32  1  0.99001000  0.92313000  0.26148000  1.0
  H  H33  1  0.00999000  0.07687000  0.73852000  1.0
  H  H34  1  0.00930000  0.80069000  0.13816000  1.0
  H  H35  1  0.99070000  0.19931000  0.86184000  1.0
  H  H36  1  0.32696000  0.71714000  0.19650000  1.0
  H  H37  1  0.67303000  0.28286000  0.80350000  1.0
  H  H38  1  0.29356000  0.78582000  0.26962000  1.0
  H  H39  1  0.70644000  0.21418000  0.73038000  1.0
  H  H40  1  0.86599000  0.14745000  0.55278000  1.0
  H  H41  1  0.13401000  0.85255000  0.44722000  1.0
  H  H42  1  0.07525000  0.05831000  0.58712000  1.0
  H  H43  1  0.92475000  0.94170000  0.41288000  1.0
  H  H44  1  0.95241000  0.13528000  0.41479000  1.0
  H  H45  1  0.04759000  0.86472000  0.58521000  1.0
  H  H46  1  0.31706000  0.99090000  0.48203000  1.0
  H  H47  1  0.68295000  0.00910000  0.51797000  1.0
  H  H48  1  0.10331000  0.32177000  0.08658000  1.0
  H  H49  1  0.89670000  0.67823000  0.91342000  1.0
  H  H50  1  0.89597000  0.40304000  0.11127000  1.0
  H  H51  1  0.10404000  0.59696000  0.88873000  1.0
  H  H52  1  0.06216000  0.39554000  0.94129000  1.0
  H  H53  1  0.93785000  0.60446000  0.05871000  1.0
  H  H54  1  0.68386000  0.51588000  0.99818000  1.0
  H  H55  1  0.31614000  0.48412000  0.00182000  1.0
  C  C56  1  0.05633000  0.66051000  0.28952000  1.0
  C  C57  1  0.94366000  0.33948000  0.71048000  1.0
  C  C58  1  0.88606000  0.70416000  0.34004000  1.0
  C  C59  1  0.11393000  0.29584000  0.65996000  1.0
  C  C60  1  0.76241000  0.79341000  0.28444000  1.0
  C  C61  1  0.23758000  0.20659000  0.71556000  1.0
  C  C62  1  0.91151000  0.88299000  0.22610000  1.0
  C  C63  1  0.08849000  0.11701000  0.77390000  1.0
  C  C64  1  0.08316000  0.83702000  0.17691000  1.0
  C  C65  1  0.91683000  0.16298000  0.82309000  1.0
  C  C66  1  0.20818000  0.75001000  0.23328000  1.0
  C  C67  1  0.79181000  0.24999000  0.76672000  1.0
  C  C68  1  0.18425000  0.57095000  0.33890000  1.0
  C  C69  1  0.81574000  0.42905000  0.66110000  1.0
  C  C70  1  0.72673000  0.61672000  0.39060000  1.0
  C  C71  1  0.27327000  0.38329000  0.60940000  1.0
  C  C72  1  0.78184000  0.96797000  0.17218000  1.0
  C  C73  1  0.21815000  0.03203000  0.82783000  1.0
  C  C74  1  0.24251000  0.92223000  0.12342000  1.0
  C  C75  1  0.75749000  0.07777000  0.87658000  1.0
  C  C76  1  0.95751000  0.07946000  0.54382000  1.0
  C  C77  1  0.04250000  0.92054000  0.45618000  1.0
  C  C78  1  0.07365000  0.11122000  0.45645000  1.0
  C  C79  1  0.92635000  0.88878000  0.54355000  1.0
  C  C80  1  0.19544000  0.01649000  0.44074000  1.0
  C  C81  1  0.80456000  0.98352000  0.55926000  1.0
  C  C82  1  0.21734000  0.20908000  0.43865000  1.0
  C  C83  1  0.78266000  0.79092000  0.56135000  1.0
  C  C84  1  0.31055000  0.04866000  0.35484000  1.0
  C  C85  1  0.68946000  0.95133000  0.64517000  1.0
  C  C86  1  0.02479000  0.39836000  0.06390000  1.0
  C  C87  1  0.97522000  0.60164000  0.93610000  1.0
  C  C88  1  0.92993000  0.40219000  0.98696000  1.0
  C  C89  1  0.07008000  0.59780000  0.01304000  1.0
  C  C90  1  0.81649000  0.50783000  0.95348000  1.0
  C  C91  1  0.18351000  0.49217000  0.04652000  1.0
  C  C92  1  0.78805000  0.30453000  0.00537000  1.0
  C  C93  1  0.21196000  0.69547000  0.99463000  1.0
  C  C94  1  0.72792000  0.51859000  0.87569000  1.0
  C  C95  1  0.27209000  0.48141000  0.12431000  1.0
  O  O96  1  0.28405000  0.50986000  0.30183000  1.0
  O  O97  1  0.71595000  0.49014000  0.69817000  1.0
  O  O98  1  0.20309000  0.55369000  0.41278000  1.0
  O  O99  1  0.79689000  0.44631000  0.58722000  1.0
  O  O100  1  0.67586000  0.54723000  0.35976000  1.0
  O  O101  1  0.32414000  0.45277000  0.64024000  1.0
  O  O102  1  0.64624000  0.62010000  0.45982000  1.0
  O  O103  1  0.35375000  0.37990000  0.54018000  1.0
  O  O104  1  0.77764000  0.97284000  0.09838000  1.0
  O  O105  1  0.22236000  0.02715000  0.90162000  1.0
  O  O106  1  0.67471000  0.03468000  0.19984000  1.0
  O  O107  1  0.32529000  0.96532000  0.80016000  1.0
  O  O108  1  0.34062000  0.91033000  0.05867000  1.0
  O  O109  1  0.65937000  0.08967000  0.94133000  1.0
  O  O110  1  0.28091000  0.00004000  0.14774000  1.0
  O  O111  1  0.71909000  0.99996000  0.85226000  1.0
  O  O112  1  0.13224000  0.30240000  0.42142000  1.0
  O  O113  1  0.86776000  0.69761000  0.57858000  1.0
  O  O114  1  0.41655000  0.20155000  0.44059000  1.0
  O  O115  1  0.58344000  0.79845000  0.55941000  1.0
  O  O116  1  0.24988000  0.12388000  0.29976000  1.0
  O  O117  1  0.75013000  0.87613000  0.70024000  1.0
  O  O118  1  0.47702000  0.98911000  0.34552000  1.0
  O  O119  1  0.52297000  0.01088000  0.65448000  1.0
  O  O120  1  0.86491000  0.21201000  0.04014000  1.0
  O  O121  1  0.13510000  0.78799000  0.95986000  1.0
  O  O122  1  0.59773000  0.31165000  0.98995000  1.0
  O  O123  1  0.40227000  0.68834000  0.01005000  1.0
  O  O124  1  0.57581000  0.57854000  0.85322000  1.0
  O  O125  1  0.42420000  0.42146000  0.14678000  1.0
  O  O126  1  0.83302000  0.46610000  0.83162000  1.0
  O  O127  1  0.16699000  0.53390000  0.16838000  1.0
  O  O128  1  0.75236000  0.33985000  0.47727000  1.0
  O  O129  1  0.24764000  0.66015000  0.52273000  1.0
  O  O130  1  0.58875000  0.35430000  0.29135000  1.0
  O  O131  1  0.41125000  0.64570000  0.70865000  1.0
  O  O132  1  0.24768000  0.16228000  0.98695000  1.0
  O  O133  1  0.75232000  0.83772000  0.01305000  1.0
  O  O134  1  0.39228000  0.21489000  0.14398000  1.0
  O  O135  1  0.60772000  0.78510000  0.85602000  1.0
