# generated using pymatgen
data_ZnH19C24N6O5
_symmetry_space_group_name_H-M   'P 1'
_cell_length_a   9.59480000
_cell_length_b   12.09920000
_cell_length_c   12.14800000
_cell_angle_alpha   64.26590000
_cell_angle_beta   75.91880000
_cell_angle_gamma   77.60850000
_symmetry_Int_Tables_number   1
_chemical_formula_structural   ZnH19C24N6O5
_chemical_formula_sum   'Zn2 H38 C48 N12 O10'
_cell_volume   1222.59352088
_cell_formula_units_Z   2
loop_
 _symmetry_equiv_pos_site_id
 _symmetry_equiv_pos_as_xyz
  1  'x, y, z'
loop_
 _atom_site_type_symbol
 _atom_site_label
 _atom_site_symmetry_multiplicity
 _atom_site_fract_x
 _atom_site_fract_y
 _atom_site_fract_z
 _atom_site_occupancy
  Zn  Zn0  1  0.44595000  0.30710000  0.80268000  1.0
  Zn  Zn1  1  0.55405000  0.69290000  0.19732000  1.0
  H  H2  1  0.00992000  0.30063000  0.77420000  1.0
  H  H3  1  0.99008000  0.69937000  0.22580000  1.0
  H  H4  1  0.76511000  0.01575000  0.82941000  1.0
  H  H5  1  0.23490000  0.98425000  0.17059000  1.0
  H  H6  1  0.20844000  0.92383000  0.89228000  1.0
  H  H7  1  0.79156000  0.07617000  0.10772000  1.0
  H  H8  1  0.12365000  0.74456000  0.00463000  1.0
  H  H9  1  0.87635000  0.25544000  0.99537000  1.0
  H  H10  1  0.17885000  0.75914000  0.84808000  1.0
  H  H11  1  0.82115000  0.24086000  0.15192000  1.0
  H  H12  1  0.90800000  0.67959000  0.82258000  1.0
  H  H13  1  0.09200000  0.32041000  0.17742000  1.0
  H  H14  1  0.15857000  0.52960000  0.11719000  1.0
  H  H15  1  0.84143000  0.47041000  0.88281000  1.0
  H  H16  1  0.48757000  0.08013000  0.07755000  1.0
  H  H17  1  0.51243000  0.91987000  0.92245000  1.0
  H  H18  1  0.41799000  0.46699000  0.96421000  1.0
  H  H19  1  0.58201000  0.53301000  0.03579000  1.0
  H  H20  1  0.56660000  0.16166000  0.32434000  1.0
  H  H21  1  0.43340000  0.83834000  0.67566000  1.0
  H  H22  1  0.58989000  0.03533000  0.28001000  1.0
  H  H23  1  0.41011000  0.96467000  0.71999000  1.0
  H  H24  1  0.41127000  0.89724000  0.35300000  1.0
  H  H25  1  0.58873000  0.10276000  0.64700000  1.0
  H  H26  1  0.05361000  0.92543000  0.63681000  1.0
  H  H27  1  0.94639000  0.07457000  0.36319000  1.0
  H  H28  1  0.10978000  0.13238000  0.59534000  1.0
  H  H29  1  0.89022000  0.86762000  0.40466000  1.0
  H  H30  1  0.32266000  0.21899000  0.43762000  1.0
  H  H31  1  0.67734000  0.78101000  0.56238000  1.0
  H  H32  1  0.09351000  0.75126000  0.58221000  1.0
  H  H33  1  0.90649000  0.24874000  0.41779000  1.0
  H  H34  1  0.20172000  0.76476000  0.43543000  1.0
  H  H35  1  0.79828000  0.23524000  0.56457000  1.0
  H  H36  1  0.17863000  0.52662000  0.71876000  1.0
  H  H37  1  0.82137000  0.47339000  0.28124000  1.0
  H  H38  1  0.62672000  0.54507000  0.62554000  1.0
  H  H39  1  0.37328000  0.45493000  0.37446000  1.0
  C  C40  1  0.26072000  0.15399000  0.83125000  1.0
  C  C41  1  0.73928000  0.84601000  0.16875000  1.0
  C  C42  1  0.12333000  0.11567000  0.82944000  1.0
  C  C43  1  0.87667000  0.88433000  0.17056000  1.0
  C  C44  1  0.00371000  0.20413000  0.79749000  1.0
  C  C45  1  0.99629000  0.79587000  0.20251000  1.0
  C  C46  1  0.87405000  0.16793000  0.79869000  1.0
  C  C47  1  0.12595000  0.83207000  0.20131000  1.0
  C  C48  1  0.74151000  0.26176000  0.77803000  1.0
  C  C49  1  0.25849000  0.73824000  0.22197000  1.0
  C  C50  1  0.86611000  0.04411000  0.82771000  1.0
  C  C51  1  0.13389000  0.95589000  0.17229000  1.0
  C  C52  1  0.98652000  0.95525000  0.86029000  1.0
  C  C53  1  0.01348000  0.04475000  0.13971000  1.0
  C  C54  1  0.11467000  0.99055000  0.86305000  1.0
  C  C55  1  0.88533000  0.00945000  0.13695000  1.0
  C  C56  1  0.08713000  0.74183000  0.92672000  1.0
  C  C57  1  0.91287000  0.25817000  0.07328000  1.0
  C  C58  1  0.03967000  0.61792000  0.96463000  1.0
  C  C59  1  0.96033000  0.38208000  0.03537000  1.0
  C  C60  1  0.94953000  0.60060000  0.89982000  1.0
  C  C61  1  0.05047000  0.39940000  0.10018000  1.0
  C  C62  1  0.08948000  0.51631000  0.06547000  1.0
  C  C63  1  0.91052000  0.48369000  0.93452000  1.0
  C  C64  1  0.46954000  0.17277000  0.07550000  1.0
  C  C65  1  0.53046000  0.82723000  0.92450000  1.0
  C  C66  1  0.43697000  0.36889000  0.02123000  1.0
  C  C67  1  0.56303000  0.63111000  0.97877000  1.0
  C  C68  1  0.51323000  0.11220000  0.29236000  1.0
  C  C69  1  0.48676000  0.88780000  0.70764000  1.0
  C  C70  1  0.38031000  0.06394000  0.38477000  1.0
  C  C71  1  0.61969000  0.93606000  0.61523000  1.0
  C  C72  1  0.34614000  0.94900000  0.40629000  1.0
  C  C73  1  0.65386000  0.05100000  0.59371000  1.0
  C  C74  1  0.22999000  0.89761000  0.49824000  1.0
  C  C75  1  0.77001000  0.10239000  0.50176000  1.0
  C  C76  1  0.14483000  0.96433000  0.56561000  1.0
  C  C77  1  0.85517000  0.03567000  0.43439000  1.0
  C  C78  1  0.17589000  0.08123000  0.54174000  1.0
  C  C79  1  0.82411000  0.91877000  0.45826000  1.0
  C  C80  1  0.29428000  0.13030000  0.45273000  1.0
  C  C81  1  0.70572000  0.86970000  0.54727000  1.0
  C  C82  1  0.19940000  0.77112000  0.52332000  1.0
  C  C83  1  0.80060000  0.22888000  0.47668000  1.0
  C  C84  1  0.28384000  0.55863000  0.67588000  1.0
  C  C85  1  0.71616000  0.44137000  0.32412000  1.0
  C  C86  1  0.51124000  0.57124000  0.62507000  1.0
  C  C87  1  0.48876000  0.42876000  0.37493000  1.0
  N  N88  1  0.44063000  0.27957000  0.98008000  1.0
  N  N89  1  0.55937000  0.72043000  0.01992000  1.0
  N  N90  1  0.46180000  0.32367000  0.13649000  1.0
  N  N91  1  0.53820000  0.67633000  0.86351000  1.0
  N  N92  1  0.48265000  0.19889000  0.16907000  1.0
  N  N93  1  0.51735000  0.80111000  0.83093000  1.0
  N  N94  1  0.30697000  0.67140000  0.58777000  1.0
  N  N95  1  0.69303000  0.32860000  0.41223000  1.0
  N  N96  1  0.45163000  0.68086000  0.55354000  1.0
  N  N97  1  0.54837000  0.31914000  0.44646000  1.0
  N  N98  1  0.41185000  0.49285000  0.70170000  1.0
  N  N99  1  0.58815000  0.50715000  0.29830000  1.0
  O  O100  1  0.26767000  0.27225000  0.77891000  1.0
  O  O101  1  0.73233000  0.72775000  0.22109000  1.0
  O  O102  1  0.35995000  0.07502000  0.88104000  1.0
  O  O103  1  0.64005000  0.92499000  0.11896000  1.0
  O  O104  1  0.73611000  0.36012000  0.79031000  1.0
  O  O105  1  0.26389000  0.63988000  0.20969000  1.0
  O  O106  1  0.63655000  0.23000000  0.75114000  1.0
  O  O107  1  0.36345000  0.77000000  0.24886000  1.0
  O  O108  1  0.96749000  0.83606000  0.88931000  1.0
  O  O109  1  0.03251000  0.16394000  0.11069000  1.0
