# generated using pymatgen
data_DyP3H33C18(NO5)3
_symmetry_space_group_name_H-M   'P 1'
_cell_length_a   12.35490000
_cell_length_b   12.35500000
_cell_length_c   18.73460000
_cell_angle_alpha   89.99980000
_cell_angle_beta   89.99990000
_cell_angle_gamma   89.99980000
_symmetry_Int_Tables_number   1
_chemical_formula_structural   DyP3H33C18(NO5)3
_chemical_formula_sum   'Dy4 P12 H132 C72 N12 O60'
_cell_volume   2859.73907333
_cell_formula_units_Z   4
loop_
 _symmetry_equiv_pos_site_id
 _symmetry_equiv_pos_as_xyz
  1  'x, y, z'
loop_
 _atom_site_type_symbol
 _atom_site_label
 _atom_site_symmetry_multiplicity
 _atom_site_fract_x
 _atom_site_fract_y
 _atom_site_fract_z
 _atom_site_occupancy
  Dy  Dy0  1  0.53805000  0.57004000  0.37572000  1.0
  Dy  Dy1  1  0.46195000  0.42995000  0.87572000  1.0
  Dy  Dy2  1  0.57004000  0.46195000  0.12572000  1.0
  Dy  Dy3  1  0.42996000  0.53805000  0.62572000  1.0
  P  P4  1  0.76531000  0.57253000  0.25367000  1.0
  P  P5  1  0.23469000  0.42747000  0.75367000  1.0
  P  P6  1  0.57251000  0.23467000  0.00366000  1.0
  P  P7  1  0.42749000  0.76532000  0.50366000  1.0
  P  P8  1  0.57233000  0.31444000  0.29960000  1.0
  P  P9  1  0.42767000  0.68556000  0.79960000  1.0
  P  P10  1  0.31444000  0.42768000  0.04960000  1.0
  P  P11  1  0.68556000  0.57232000  0.54960000  1.0
  P  P12  1  0.30071000  0.47110000  0.45371000  1.0
  P  P13  1  0.69928000  0.52890000  0.95372000  1.0
  P  P14  1  0.47109000  0.69928000  0.20372000  1.0
  P  P15  1  0.52891000  0.30072000  0.70372000  1.0
  H  H16  1  0.88956000  0.68216000  0.19222000  1.0
  H  H17  1  0.11043000  0.31785000  0.69222000  1.0
  H  H18  1  0.68214000  0.11041000  0.94223000  1.0
  H  H19  1  0.31786000  0.88958000  0.44222000  1.0
  H  H20  1  0.68796000  0.17553000  0.26262000  1.0
  H  H21  1  0.31204000  0.82447000  0.76261000  1.0
  H  H22  1  0.17553000  0.31204000  0.01262000  1.0
  H  H23  1  0.82447000  0.68796000  0.51262000  1.0
  H  H24  1  0.19905000  0.34754000  0.39377000  1.0
  H  H25  1  0.80095000  0.65246000  0.89377000  1.0
  H  H26  1  0.34752000  0.80095000  0.14379000  1.0
  H  H27  1  0.65249000  0.19905000  0.64379000  1.0
  H  H28  1  0.95939000  0.46983000  0.19600000  1.0
  H  H29  1  0.04061000  0.53017000  0.69600000  1.0
  H  H30  1  0.46980000  0.04058000  0.94601000  1.0
  H  H31  1  0.53019000  0.95942000  0.44601000  1.0
  H  H32  1  0.46938000  0.11205000  0.25890000  1.0
  H  H33  1  0.53062000  0.88795000  0.75891000  1.0
  H  H34  1  0.11204000  0.53061000  0.00890000  1.0
  H  H35  1  0.88796000  0.46939000  0.50890000  1.0
  H  H36  1  0.11744000  0.55729000  0.36674000  1.0
  H  H37  1  0.88255000  0.44272000  0.86674000  1.0
  H  H38  1  0.55728000  0.88254000  0.11674000  1.0
  H  H39  1  0.44272000  0.11746000  0.61674000  1.0
  H  H40  1  0.94799000  0.26580000  0.28060000  1.0
  H  H41  1  0.05201000  0.73420000  0.78060000  1.0
  H  H42  1  0.26577000  0.05200000  0.03061000  1.0
  H  H43  1  0.73423000  0.94800000  0.53061000  1.0
  H  H44  1  0.06939000  0.19097000  0.19157000  1.0
  H  H45  1  0.93060000  0.80903000  0.69157000  1.0
  H  H46  1  0.19094000  0.93059000  0.94159000  1.0
  H  H47  1  0.80906000  0.06942000  0.44158000  1.0
  H  H48  1  0.09944000  0.32050000  0.15587000  1.0
  H  H49  1  0.90056000  0.67951000  0.65587000  1.0
  H  H50  1  0.32047000  0.90053000  0.90590000  1.0
  H  H51  1  0.67953000  0.09947000  0.40589000  1.0
  H  H52  1  0.95674000  0.28638000  0.07674000  1.0
  H  H53  1  0.04327000  0.71363000  0.57675000  1.0
  H  H54  1  0.28639000  0.04320000  0.82675000  1.0
  H  H55  1  0.71361000  0.95680000  0.32675000  1.0
  H  H56  1  0.89722000  0.18617000  0.13205000  1.0
  H  H57  1  0.10278000  0.81383000  0.63205000  1.0
  H  H58  1  0.18615000  0.10274000  0.88203000  1.0
  H  H59  1  0.81384000  0.89726000  0.38203000  1.0
  H  H60  1  0.82802000  0.41089000  0.12494000  1.0
  H  H61  1  0.17198000  0.58911000  0.62494000  1.0
  H  H62  1  0.41086000  0.17195000  0.87494000  1.0
  H  H63  1  0.58914000  0.82805000  0.37494000  1.0
  H  H64  1  0.78381000  0.31006000  0.18685000  1.0
  H  H65  1  0.21619000  0.68995000  0.68685000  1.0
  H  H66  1  0.31001000  0.21615000  0.93684000  1.0
  H  H67  1  0.68999000  0.78385000  0.43684000  1.0
  H  H68  1  0.89944000  0.47977000  0.32308000  1.0
  H  H69  1  0.10056000  0.52024000  0.82308000  1.0
  H  H70  1  0.47974000  0.10056000  0.07309000  1.0
  H  H71  1  0.52025000  0.89944000  0.57309000  1.0
  H  H72  1  0.79103000  0.39050000  0.29825000  1.0
  H  H73  1  0.20897000  0.60950000  0.79825000  1.0
  H  H74  1  0.39048000  0.20898000  0.04824000  1.0
  H  H75  1  0.60952000  0.79102000  0.54824000  1.0
  H  H76  1  0.26412000  0.15098000  0.33745000  1.0
  H  H77  1  0.73588000  0.84903000  0.83745000  1.0
  H  H78  1  0.15095000  0.73589000  0.08744000  1.0
  H  H79  1  0.84905000  0.26411000  0.58745000  1.0
  H  H80  1  0.26974000  0.95886000  0.23949000  1.0
  H  H81  1  0.73026000  0.04115000  0.73949000  1.0
  H  H82  1  0.95882000  0.73023000  0.98947000  1.0
  H  H83  1  0.04119000  0.26978000  0.48947000  1.0
  H  H84  1  0.16685000  0.05640000  0.25342000  1.0
  H  H85  1  0.83315000  0.94360000  0.75342000  1.0
  H  H86  1  0.05635000  0.83315000  0.00341000  1.0
  H  H87  1  0.94366000  0.16686000  0.50341000  1.0
  H  H88  1  0.35298000  0.05724000  0.14992000  1.0
  H  H89  1  0.64702000  0.94276000  0.64992000  1.0
  H  H90  1  0.05723000  0.64702000  0.89991000  1.0
  H  H91  1  0.94277000  0.35299000  0.39991000  1.0
  H  H92  1  0.23116000  0.13270000  0.14198000  1.0
  H  H93  1  0.76884000  0.86730000  0.64198000  1.0
  H  H94  1  0.13269000  0.76885000  0.89197000  1.0
  H  H95  1  0.86731000  0.23115000  0.39197000  1.0
  H  H96  1  0.41687000  0.24139000  0.17485000  1.0
  H  H97  1  0.58313000  0.75861000  0.67485000  1.0
  H  H98  1  0.24139000  0.58315000  0.92485000  1.0
  H  H99  1  0.75861000  0.41685000  0.42485000  1.0
  H  H100  1  0.29816000  0.27098000  0.22511000  1.0
  H  H101  1  0.70184000  0.72903000  0.72510000  1.0
  H  H102  1  0.27095000  0.70186000  0.97511000  1.0
  H  H103  1  0.72905000  0.29814000  0.47511000  1.0
  H  H104  1  0.46177000  0.20814000  0.37708000  1.0
  H  H105  1  0.53823000  0.79186000  0.87708000  1.0
  H  H106  1  0.20812000  0.53823000  0.12708000  1.0
  H  H107  1  0.79187000  0.46176000  0.62708000  1.0
  H  H108  1  0.38410000  0.30926000  0.33191000  1.0
  H  H109  1  0.61591000  0.69074000  0.83191000  1.0
  H  H110  1  0.30924000  0.61592000  0.08191000  1.0
  H  H111  1  0.69076000  0.38407000  0.58191000  1.0
  H  H112  1  0.10325000  0.76319000  0.44865000  1.0
  H  H113  1  0.89675000  0.23682000  0.94865000  1.0
  H  H114  1  0.76317000  0.89675000  0.19865000  1.0
  H  H115  1  0.23683000  0.10325000  0.69864000  1.0
  H  H116  1  0.97100000  0.73376000  0.31405000  1.0
  H  H117  1  0.02900000  0.26624000  0.81405000  1.0
  H  H118  1  0.73374000  0.02898000  0.06405000  1.0
  H  H119  1  0.26627000  0.97102000  0.56405000  1.0
  H  H120  1  0.03641000  0.85084000  0.34783000  1.0
  H  H121  1  0.96359000  0.14916000  0.84783000  1.0
  H  H122  1  0.85083000  0.96359000  0.09783000  1.0
  H  H123  1  0.14917000  0.03640000  0.59783000  1.0
  H  H124  1  0.18372000  0.80929000  0.26978000  1.0
  H  H125  1  0.81628000  0.19071000  0.76978000  1.0
  H  H126  1  0.80929000  0.81626000  0.01979000  1.0
  H  H127  1  0.19071000  0.18374000  0.51979000  1.0
  H  H128  1  0.12197000  0.68433000  0.24763000  1.0
  H  H129  1  0.87803000  0.31567000  0.74763000  1.0
  H  H130  1  0.68433000  0.87801000  0.99763000  1.0
  H  H131  1  0.31567000  0.12199000  0.49763000  1.0
  H  H132  1  0.27768000  0.73397000  0.37031000  1.0
  H  H133  1  0.72232000  0.26603000  0.87031000  1.0
  H  H134  1  0.73396000  0.72229000  0.12032000  1.0
  H  H135  1  0.26604000  0.27771000  0.62032000  1.0
  H  H136  1  0.27472000  0.61718000  0.31491000  1.0
  H  H137  1  0.72529000  0.38282000  0.81490000  1.0
  H  H138  1  0.61718000  0.72527000  0.06491000  1.0
  H  H139  1  0.38282000  0.27473000  0.56490000  1.0
  H  H140  1  0.14055000  0.55638000  0.49690000  1.0
  H  H141  1  0.85945000  0.44361000  0.99690000  1.0
  H  H142  1  0.55635000  0.85945000  0.24689000  1.0
  H  H143  1  0.44364000  0.14054000  0.74689000  1.0
  H  H144  1  0.24724000  0.65277000  0.48583000  1.0
  H  H145  1  0.75276000  0.34723000  0.98583000  1.0
  H  H146  1  0.65274000  0.75276000  0.23584000  1.0
  H  H147  1  0.34726000  0.24724000  0.73584000  1.0
  C  C148  1  0.99497000  0.32413000  0.24890000  1.0
  C  C149  1  0.00502000  0.67587000  0.74890000  1.0
  C  C150  1  0.32410000  0.00501000  0.99891000  1.0
  C  C151  1  0.67590000  0.99499000  0.49891000  1.0
  C  C152  1  0.03553000  0.27104000  0.18028000  1.0
  C  C153  1  0.96447000  0.72896000  0.68028000  1.0
  C  C154  1  0.27102000  0.96445000  0.93029000  1.0
  C  C155  1  0.72898000  0.03555000  0.43028000  1.0
  C  C156  1  0.93468000  0.26663000  0.13181000  1.0
  C  C157  1  0.06532000  0.73337000  0.63181000  1.0
  C  C158  1  0.26662000  0.06528000  0.88180000  1.0
  C  C159  1  0.73338000  0.93472000  0.38180000  1.0
  C  C160  1  0.85456000  0.34934000  0.16295000  1.0
  C  C161  1  0.14544000  0.65066000  0.66295000  1.0
  C  C162  1  0.34931000  0.14541000  0.91294000  1.0
  C  C163  1  0.65069000  0.85459000  0.41294000  1.0
  C  C164  1  0.84591000  0.45439000  0.27952000  1.0
  C  C165  1  0.15409000  0.54562000  0.77952000  1.0
  C  C166  1  0.45435000  0.15408000  0.02951000  1.0
  C  C167  1  0.54565000  0.84592000  0.52951000  1.0
  C  C168  1  0.08264000  0.37398000  0.29640000  1.0
  C  C169  1  0.91736000  0.62602000  0.79640000  1.0
  C  C170  1  0.37396000  0.91735000  0.04640000  1.0
  C  C171  1  0.62604000  0.08265000  0.54640000  1.0
  C  C172  1  0.31657000  0.09418000  0.30838000  1.0
  C  C173  1  0.68343000  0.90583000  0.80838000  1.0
  C  C174  1  0.09415000  0.68343000  0.05837000  1.0
  C  C175  1  0.90585000  0.31657000  0.55837000  1.0
  C  C176  1  0.25394000  0.04578000  0.24469000  1.0
  C  C177  1  0.74605000  0.95422000  0.74469000  1.0
  C  C178  1  0.04575000  0.74605000  0.99468000  1.0
  C  C179  1  0.95426000  0.25395000  0.49468000  1.0
  C  C180  1  0.29541000  0.10828000  0.17889000  1.0
  C  C181  1  0.70459000  0.89172000  0.67889000  1.0
  C  C182  1  0.10826000  0.70460000  0.92888000  1.0
  C  C183  1  0.89174000  0.29540000  0.42889000  1.0
  C  C184  1  0.35405000  0.20655000  0.20876000  1.0
  C  C185  1  0.64595000  0.79346000  0.70876000  1.0
  C  C186  1  0.20653000  0.64596000  0.95876000  1.0
  C  C187  1  0.79347000  0.35404000  0.45876000  1.0
  C  C188  1  0.44663000  0.24688000  0.32537000  1.0
  C  C189  1  0.55337000  0.75312000  0.82537000  1.0
  C  C190  1  0.24686000  0.55338000  0.07537000  1.0
  C  C191  1  0.75314000  0.44661000  0.57537000  1.0
  C  C192  1  0.36019000  0.01171000  0.36149000  1.0
  C  C193  1  0.63981000  0.98829000  0.86149000  1.0
  C  C194  1  0.01169000  0.63981000  0.11148000  1.0
  C  C195  1  0.98831000  0.36019000  0.61148000  1.0
  C  C196  1  0.06645000  0.70638000  0.41046000  1.0
  C  C197  1  0.93355000  0.29362000  0.91046000  1.0
  C  C198  1  0.70637000  0.93354000  0.16046000  1.0
  C  C199  1  0.29363000  0.06646000  0.66046000  1.0
  C  C200  1  0.04564000  0.76369000  0.33871000  1.0
  C  C201  1  0.95436000  0.23631000  0.83871000  1.0
  C  C202  1  0.76368000  0.95434000  0.08871000  1.0
  C  C203  1  0.23632000  0.04565000  0.58871000  1.0
  C  C204  1  0.14551000  0.73702000  0.29208000  1.0
  C  C205  1  0.85449000  0.26298000  0.79208000  1.0
  C  C206  1  0.73702000  0.85448000  0.04208000  1.0
  C  C207  1  0.26298000  0.14552000  0.54208000  1.0
  C  C208  1  0.22487000  0.67839000  0.34103000  1.0
  C  C209  1  0.77513000  0.32161000  0.84103000  1.0
  C  C210  1  0.67839000  0.77511000  0.09103000  1.0
  C  C211  1  0.32161000  0.22489000  0.59102000  1.0
  C  C212  1  0.20528000  0.58409000  0.46113000  1.0
  C  C213  1  0.79472000  0.41591000  0.96113000  1.0
  C  C214  1  0.58407000  0.79472000  0.21113000  1.0
  C  C215  1  0.41593000  0.20528000  0.71113000  1.0
  C  C216  1  0.96659000  0.65674000  0.44552000  1.0
  C  C217  1  0.03341000  0.34326000  0.94552000  1.0
  C  C218  1  0.65672000  0.03341000  0.19551000  1.0
  C  C219  1  0.34328000  0.96659000  0.69551000  1.0
  N  N220  1  0.91521000  0.40724000  0.22188000  1.0
  N  N221  1  0.08479000  0.59276000  0.72189000  1.0
  N  N222  1  0.40721000  0.08478000  0.97189000  1.0
  N  N223  1  0.59278000  0.91522000  0.47189000  1.0
  N  N224  1  0.40501000  0.16261000  0.27565000  1.0
  N  N225  1  0.59499000  0.83739000  0.77565000  1.0
  N  N226  1  0.16260000  0.59499000  0.02565000  1.0
  N  N227  1  0.83740000  0.40501000  0.52565000  1.0
  N  N228  1  0.15240000  0.62341000  0.39468000  1.0
  N  N229  1  0.84760000  0.37659000  0.89468000  1.0
  N  N230  1  0.62340000  0.84759000  0.14468000  1.0
  N  N231  1  0.37660000  0.15241000  0.64468000  1.0
  O  O232  1  0.69517000  0.59972000  0.31778000  1.0
  O  O233  1  0.30483000  0.40028000  0.81778000  1.0
  O  O234  1  0.59969000  0.30483000  0.06777000  1.0
  O  O235  1  0.40031000  0.69517000  0.56777000  1.0
  O  O236  1  0.70622000  0.54272000  0.18507000  1.0
  O  O237  1  0.29377000  0.45729000  0.68507000  1.0
  O  O238  1  0.54271000  0.29375000  0.93506000  1.0
  O  O239  1  0.45729000  0.70625000  0.43506000  1.0
  O  O240  1  0.84423000  0.66930000  0.24228000  1.0
  O  O241  1  0.15576000  0.33070000  0.74229000  1.0
  O  O242  1  0.66929000  0.15575000  0.99229000  1.0
  O  O243  1  0.33071000  0.84425000  0.49229000  1.0
  O  O244  1  0.14269000  0.30600000  0.32882000  1.0
  O  O245  1  0.85730000  0.69400000  0.82882000  1.0
  O  O246  1  0.30599000  0.85730000  0.07884000  1.0
  O  O247  1  0.69401000  0.14269000  0.57884000  1.0
  O  O248  1  0.08723000  0.47572000  0.29961000  1.0
  O  O249  1  0.91277000  0.52428000  0.79961000  1.0
  O  O250  1  0.47570000  0.91274000  0.04960000  1.0
  O  O251  1  0.52430000  0.08725000  0.54960000  1.0
  O  O252  1  0.58666000  0.39850000  0.35783000  1.0
  O  O253  1  0.41334000  0.60150000  0.85783000  1.0
  O  O254  1  0.39850000  0.41335000  0.10783000  1.0
  O  O255  1  0.60150000  0.58665000  0.60784000  1.0
  O  O256  1  0.56113000  0.35872000  0.22417000  1.0
  O  O257  1  0.43887000  0.64127000  0.72418000  1.0
  O  O258  1  0.35873000  0.43887000  0.97418000  1.0
  O  O259  1  0.64126000  0.56113000  0.47419000  1.0
  O  O260  1  0.66681000  0.23119000  0.30656000  1.0
  O  O261  1  0.33320000  0.76881000  0.80656000  1.0
  O  O262  1  0.23118000  0.33321000  0.05656000  1.0
  O  O263  1  0.76882000  0.66679000  0.55656000  1.0
  O  O264  1  0.28701000  0.94936000  0.38652000  1.0
  O  O265  1  0.71299000  0.05064000  0.88652000  1.0
  O  O266  1  0.94936000  0.71300000  0.13652000  1.0
  O  O267  1  0.05064000  0.28701000  0.63652000  1.0
  O  O268  1  0.45948000  0.01221000  0.37667000  1.0
  O  O269  1  0.54052000  0.98779000  0.87667000  1.0
  O  O270  1  0.01218000  0.54052000  0.12666000  1.0
  O  O271  1  0.98782000  0.45948000  0.62666000  1.0
  O  O272  1  0.37562000  0.48741000  0.39032000  1.0
  O  O273  1  0.62438000  0.51259000  0.89032000  1.0
  O  O274  1  0.48740000  0.62438000  0.14032000  1.0
  O  O275  1  0.51260000  0.37562000  0.64032000  1.0
  O  O276  1  0.35486000  0.46780000  0.52645000  1.0
  O  O277  1  0.64514000  0.53220000  0.02645000  1.0
  O  O278  1  0.46779000  0.64512000  0.27645000  1.0
  O  O279  1  0.53221000  0.35487000  0.77645000  1.0
  O  O280  1  0.23053000  0.36580000  0.44435000  1.0
  O  O281  1  0.76947000  0.63419000  0.94435000  1.0
  O  O282  1  0.36579000  0.76946000  0.19436000  1.0
  O  O283  1  0.63421000  0.23053000  0.69436000  1.0
  O  O284  1  0.89804000  0.72725000  0.46691000  1.0
  O  O285  1  0.10196000  0.27275000  0.96690000  1.0
  O  O286  1  0.72724000  0.10196000  0.21690000  1.0
  O  O287  1  0.27276000  0.89804000  0.71690000  1.0
  O  O288  1  0.95973000  0.55542000  0.45170000  1.0
  O  O289  1  0.04026000  0.44459000  0.95170000  1.0
  O  O290  1  0.55541000  0.04026000  0.20170000  1.0
  O  O291  1  0.44459000  0.95974000  0.70170000  1.0
