# generated using pymatgen
data_ZnH21C21SN5O6
_symmetry_space_group_name_H-M   'P 1'
_cell_length_a   8.04870000
_cell_length_b   15.42190000
_cell_length_c   21.93560000
_cell_angle_alpha   89.99990000
_cell_angle_beta   84.94730000
_cell_angle_gamma   89.99980000
_symmetry_Int_Tables_number   1
_chemical_formula_structural   ZnH21C21SN5O6
_chemical_formula_sum   'Zn4 H84 C84 S4 N20 O24'
_cell_volume   2712.20326049
_cell_formula_units_Z   4
loop_
 _symmetry_equiv_pos_site_id
 _symmetry_equiv_pos_as_xyz
  1  'x, y, z'
loop_
 _atom_site_type_symbol
 _atom_site_label
 _atom_site_symmetry_multiplicity
 _atom_site_fract_x
 _atom_site_fract_y
 _atom_site_fract_z
 _atom_site_occupancy
  Zn  Zn0  1  0.15728000  0.02396000  0.76782000  1.0
  Zn  Zn1  1  0.34273000  0.52396000  0.73218000  1.0
  Zn  Zn2  1  0.84273000  0.97604000  0.23218000  1.0
  Zn  Zn3  1  0.65727000  0.47604000  0.26782000  1.0
  H  H4  1  0.16264000  0.69229000  0.55867000  1.0
  H  H5  1  0.33737000  0.19229000  0.94132000  1.0
  H  H6  1  0.83736000  0.30771000  0.44133000  1.0
  H  H7  1  0.66264000  0.80771000  0.05867000  1.0
  H  H8  1  0.43451000  0.61691000  0.55497000  1.0
  H  H9  1  0.06549000  0.11690000  0.94503000  1.0
  H  H10  1  0.56548000  0.38309000  0.44502000  1.0
  H  H11  1  0.93452000  0.88310000  0.05497000  1.0
  H  H12  1  0.60529000  0.80599000  0.68063000  1.0
  H  H13  1  0.89470000  0.30600000  0.81937000  1.0
  H  H14  1  0.39470000  0.19401000  0.31937000  1.0
  H  H15  1  0.10530000  0.69401000  0.18063000  1.0
  H  H16  1  0.48519000  0.97803000  0.82995000  1.0
  H  H17  1  0.01482000  0.47803000  0.67005000  1.0
  H  H18  1  0.51482000  0.02198000  0.17006000  1.0
  H  H19  1  0.98518000  0.52198000  0.32994000  1.0
  H  H20  1  0.18376000  0.90688000  0.99005000  1.0
  H  H21  1  0.31624000  0.40687000  0.50995000  1.0
  H  H22  1  0.81624000  0.09312000  0.00995000  1.0
  H  H23  1  0.68375000  0.59313000  0.49005000  1.0
  H  H24  1  0.98124000  0.96661000  0.90154000  1.0
  H  H25  1  0.51876000  0.46661000  0.59846000  1.0
  H  H26  1  0.01876000  0.03339000  0.09846000  1.0
  H  H27  1  0.48124000  0.53339000  0.40153000  1.0
  H  H28  1  0.48062000  0.89369000  0.99625000  1.0
  H  H29  1  0.01937000  0.39370000  0.50375000  1.0
  H  H30  1  0.51938000  0.10630000  0.00375000  1.0
  H  H31  1  0.98062000  0.60630000  0.49625000  1.0
  H  H32  1  0.61115000  0.96350000  0.94715000  1.0
  H  H33  1  0.88885000  0.46350000  0.55285000  1.0
  H  H34  1  0.38885000  0.03650000  0.05285000  1.0
  H  H35  1  0.11114000  0.53650000  0.44715000  1.0
  H  H36  1  0.74826000  0.90777000  0.84877000  1.0
  H  H37  1  0.75174000  0.40777000  0.65123000  1.0
  H  H38  1  0.25173000  0.09222000  0.15123000  1.0
  H  H39  1  0.24826000  0.59223000  0.34877000  1.0
  H  H40  1  0.82340000  0.63207000  0.83439000  1.0
  H  H41  1  0.67660000  0.13208000  0.66561000  1.0
  H  H42  1  0.17660000  0.36792000  0.16561000  1.0
  H  H43  1  0.32341000  0.86793000  0.33439000  1.0
  H  H44  1  0.62497000  0.61032000  0.92674000  1.0
  H  H45  1  0.87503000  0.11033000  0.57326000  1.0
  H  H46  1  0.37504000  0.38968000  0.07325000  1.0
  H  H47  1  0.12497000  0.88968000  0.42675000  1.0
  H  H48  1  0.48454000  0.73733000  0.97936000  1.0
  H  H49  1  0.01546000  0.23734000  0.52064000  1.0
  H  H50  1  0.51546000  0.26266000  0.02064000  1.0
  H  H51  1  0.98454000  0.76267000  0.47936000  1.0
  H  H52  1  0.85075000  0.76441000  0.73674000  1.0
  H  H53  1  0.64925000  0.26441000  0.76326000  1.0
  H  H54  1  0.14924000  0.23559000  0.26326000  1.0
  H  H55  1  0.35076000  0.73559000  0.23674000  1.0
  H  H56  1  0.93689000  0.85635000  0.77150000  1.0
  H  H57  1  0.56311000  0.35635000  0.72850000  1.0
  H  H58  1  0.06311000  0.14365000  0.22850000  1.0
  H  H59  1  0.43689000  0.64365000  0.27150000  1.0
  H  H60  1  0.02876000  0.64154000  0.71139000  1.0
  H  H61  1  0.47124000  0.14154000  0.78861000  1.0
  H  H62  1  0.97123000  0.35847000  0.28861000  1.0
  H  H63  1  0.52877000  0.85846000  0.21139000  1.0
  H  H64  1  0.43150000  0.68570000  0.81980000  1.0
  H  H65  1  0.06850000  0.18570000  0.68020000  1.0
  H  H66  1  0.56851000  0.31430000  0.18020000  1.0
  H  H67  1  0.93151000  0.81430000  0.31980000  1.0
  H  H68  1  0.18782000  0.81168000  0.84554000  1.0
  H  H69  1  0.31219000  0.31168000  0.65446000  1.0
  H  H70  1  0.81218000  0.18831000  0.15446000  1.0
  H  H71  1  0.68782000  0.68832000  0.34554000  1.0
  H  H72  1  0.98244000  0.79654000  0.60379000  1.0
  H  H73  1  0.51756000  0.29655000  0.89620000  1.0
  H  H74  1  0.01755000  0.20345000  0.39621000  1.0
  H  H75  1  0.48245000  0.70346000  0.10379000  1.0
  H  H76  1  0.05419000  0.87965000  0.65136000  1.0
  H  H77  1  0.44581000  0.37966000  0.84864000  1.0
  H  H78  1  0.94581000  0.12034000  0.34864000  1.0
  H  H79  1  0.55420000  0.62035000  0.15136000  1.0
  H  H80  1  0.82881000  0.07454000  0.78786000  1.0
  H  H81  1  0.67119000  0.57454000  0.71214000  1.0
  H  H82  1  0.17120000  0.92546000  0.21214000  1.0
  H  H83  1  0.32880000  0.42546000  0.28786000  1.0
  H  H84  1  0.85478000  0.01029000  0.72976000  1.0
  H  H85  1  0.64522000  0.51029000  0.77024000  1.0
  H  H86  1  0.14523000  0.98971000  0.27024000  1.0
  H  H87  1  0.35477000  0.48971000  0.22976000  1.0
  C  C88  1  0.35762000  0.82478000  0.65564000  1.0
  C  C89  1  0.14236000  0.32478000  0.84436000  1.0
  C  C90  1  0.64237000  0.17522000  0.34436000  1.0
  C  C91  1  0.85763000  0.67522000  0.15564000  1.0
  C  C92  1  0.22813000  0.79231000  0.62094000  1.0
  C  C93  1  0.27186000  0.29231000  0.87906000  1.0
  C  C94  1  0.77186000  0.20769000  0.37906000  1.0
  C  C95  1  0.72814000  0.70769000  0.12094000  1.0
  C  C96  1  0.26145000  0.71689000  0.58475000  1.0
  C  C97  1  0.23855000  0.21690000  0.91525000  1.0
  C  C98  1  0.73855000  0.28310000  0.41525000  1.0
  C  C99  1  0.76146000  0.78311000  0.08475000  1.0
  C  C100  1  0.41310000  0.67504000  0.58270000  1.0
  C  C101  1  0.08690000  0.17504000  0.91730000  1.0
  C  C102  1  0.58689000  0.32496000  0.41730000  1.0
  C  C103  1  0.91311000  0.82496000  0.08270000  1.0
  C  C104  1  0.53883000  0.70632000  0.61744000  1.0
  C  C105  1  0.96117000  0.20632000  0.88256000  1.0
  C  C106  1  0.46116000  0.29368000  0.38256000  1.0
  C  C107  1  0.03884000  0.79368000  0.11744000  1.0
  C  C108  1  0.51018000  0.78062000  0.65295000  1.0
  C  C109  1  0.98981000  0.28062000  0.84705000  1.0
  C  C110  1  0.48981000  0.21937000  0.34705000  1.0
  C  C111  1  0.01019000  0.71938000  0.15295000  1.0
  C  C112  1  0.33653000  0.90220000  0.69665000  1.0
  C  C113  1  0.16346000  0.40221000  0.80335000  1.0
  C  C114  1  0.66347000  0.09779000  0.30335000  1.0
  C  C115  1  0.83653000  0.59780000  0.19665000  1.0
  C  C116  1  0.37530000  0.96840000  0.86140000  1.0
  C  C117  1  0.12471000  0.46840000  0.63860000  1.0
  C  C118  1  0.62471000  0.03160000  0.13860000  1.0
  C  C119  1  0.87529000  0.53160000  0.36140000  1.0
  C  C120  1  0.21269000  0.92892000  0.94344000  1.0
  C  C121  1  0.28731000  0.42892000  0.55655000  1.0
  C  C122  1  0.78731000  0.07107000  0.05656000  1.0
  C  C123  1  0.71269000  0.57108000  0.44344000  1.0
  C  C124  1  0.11517000  0.95818000  0.89951000  1.0
  C  C125  1  0.38483000  0.45819000  0.60049000  1.0
  C  C126  1  0.88483000  0.04181000  0.10049000  1.0
  C  C127  1  0.61518000  0.54182000  0.39951000  1.0
  C  C128  1  0.52413000  0.90853000  0.94863000  1.0
  C  C129  1  0.97587000  0.40854000  0.55137000  1.0
  C  C130  1  0.47587000  0.09146000  0.05138000  1.0
  C  C131  1  0.02412000  0.59147000  0.44862000  1.0
  C  C132  1  0.60645000  0.83051000  0.91724000  1.0
  C  C133  1  0.89355000  0.33051000  0.58276000  1.0
  C  C134  1  0.39355000  0.16949000  0.08276000  1.0
  C  C135  1  0.10645000  0.66949000  0.41724000  1.0
  C  C136  1  0.71868000  0.84231000  0.86538000  1.0
  C  C137  1  0.78132000  0.34231000  0.63462000  1.0
  C  C138  1  0.28132000  0.15769000  0.13462000  1.0
  C  C139  1  0.21867000  0.65769000  0.36538000  1.0
  C  C140  1  0.79488000  0.77160000  0.83463000  1.0
  C  C141  1  0.70513000  0.27160000  0.66538000  1.0
  C  C142  1  0.20513000  0.22840000  0.16538000  1.0
  C  C143  1  0.29488000  0.72840000  0.33463000  1.0
  C  C144  1  0.76083000  0.68774000  0.85710000  1.0
  C  C145  1  0.73917000  0.18774000  0.64290000  1.0
  C  C146  1  0.23917000  0.31226000  0.14290000  1.0
  C  C147  1  0.26084000  0.81226000  0.35710000  1.0
  C  C148  1  0.65014000  0.67555000  0.90903000  1.0
  C  C149  1  0.84986000  0.17555000  0.59097000  1.0
  C  C150  1  0.34986000  0.32445000  0.09097000  1.0
  C  C151  1  0.15015000  0.82446000  0.40903000  1.0
  C  C152  1  0.57148000  0.74658000  0.93884000  1.0
  C  C153  1  0.92853000  0.24658000  0.56115000  1.0
  C  C154  1  0.42852000  0.25342000  0.06116000  1.0
  C  C155  1  0.07147000  0.75343000  0.43884000  1.0
  C  C156  1  0.90928000  0.78707000  0.77727000  1.0
  C  C157  1  0.59072000  0.28707000  0.72273000  1.0
  C  C158  1  0.09072000  0.21293000  0.22273000  1.0
  C  C159  1  0.40928000  0.71293000  0.27727000  1.0
  C  C160  1  0.10849000  0.66869000  0.74397000  1.0
  C  C161  1  0.39150000  0.16870000  0.75603000  1.0
  C  C162  1  0.89150000  0.33130000  0.25603000  1.0
  C  C163  1  0.60851000  0.83130000  0.24397000  1.0
  C  C164  1  0.31229000  0.69455000  0.80122000  1.0
  C  C165  1  0.18772000  0.19455000  0.69878000  1.0
  C  C166  1  0.68771000  0.30544000  0.19878000  1.0
  C  C167  1  0.81230000  0.80544000  0.30122000  1.0
  C  C168  1  0.19414000  0.75748000  0.81412000  1.0
  C  C169  1  0.30585000  0.25747000  0.68588000  1.0
  C  C170  1  0.80585000  0.24252000  0.18588000  1.0
  C  C171  1  0.69415000  0.74253000  0.31412000  1.0
  S  S172  1  0.73397000  0.65334000  0.61368000  1.0
  S  S173  1  0.76604000  0.15334000  0.88632000  1.0
  S  S174  1  0.26603000  0.34666000  0.38632000  1.0
  S  S175  1  0.23397000  0.84666000  0.11368000  1.0
  N  N176  1  0.21819000  0.98258000  0.84853000  1.0
  N  N177  1  0.28182000  0.48258000  0.65148000  1.0
  N  N178  1  0.78182000  0.01742000  0.15148000  1.0
  N  N179  1  0.71818000  0.51743000  0.34852000  1.0
  N  N180  1  0.37606000  0.93620000  0.91872000  1.0
  N  N181  1  0.12394000  0.43620000  0.58128000  1.0
  N  N182  1  0.62395000  0.06380000  0.08128000  1.0
  N  N183  1  0.87605000  0.56380000  0.41872000  1.0
  N  N184  1  0.06692000  0.74017000  0.77747000  1.0
  N  N185  1  0.43307000  0.24017000  0.72253000  1.0
  N  N186  1  0.93307000  0.25983000  0.22253000  1.0
  N  N187  1  0.56693000  0.75983000  0.27747000  1.0
  N  N188  1  0.25698000  0.63938000  0.75752000  1.0
  N  N189  1  0.24302000  0.13938000  0.74248000  1.0
  N  N190  1  0.74301000  0.36062000  0.24248000  1.0
  N  N191  1  0.75700000  0.86061000  0.25752000  1.0
  N  N192  1  0.07694000  0.83091000  0.62054000  1.0
  N  N193  1  0.42305000  0.33091000  0.87946000  1.0
  N  N194  1  0.92305000  0.16909000  0.37946000  1.0
  N  N195  1  0.57695000  0.66910000  0.12054000  1.0
  O  O196  1  0.18328000  0.93341000  0.70527000  1.0
  O  O197  1  0.31671000  0.43342000  0.79473000  1.0
  O  O198  1  0.81671000  0.06658000  0.29473000  1.0
  O  O199  1  0.68329000  0.56659000  0.20527000  1.0
  O  O200  1  0.45569000  0.93425000  0.72185000  1.0
  O  O201  1  0.04430000  0.43425000  0.77815000  1.0
  O  O202  1  0.54430000  0.06575000  0.27815000  1.0
  O  O203  1  0.95571000  0.56575000  0.22185000  1.0
  O  O204  1  0.77856000  0.64661000  0.67843000  1.0
  O  O205  1  0.72145000  0.14661000  0.82157000  1.0
  O  O206  1  0.22144000  0.35340000  0.32157000  1.0
  O  O207  1  0.27856000  0.85339000  0.17843000  1.0
  O  O208  1  0.85427000  0.70717000  0.57639000  1.0
  O  O209  1  0.64572000  0.20717000  0.92361000  1.0
  O  O210  1  0.14572000  0.29283000  0.42360000  1.0
  O  O211  1  0.35428000  0.79283000  0.07639000  1.0
  O  O212  1  0.71174000  0.56721000  0.58704000  1.0
  O  O213  1  0.78826000  0.06721000  0.91296000  1.0
  O  O214  1  0.28826000  0.43279000  0.41296000  1.0
  O  O215  1  0.21174000  0.93280000  0.08704000  1.0
  O  O216  1  0.90005000  0.02519000  0.76803000  1.0
  O  O217  1  0.59995000  0.52519000  0.73197000  1.0
  O  O218  1  0.09996000  0.97481000  0.23197000  1.0
  O  O219  1  0.40004000  0.47481000  0.26803000  1.0
