# generated using pymatgen
data_MnH22C30(NO)6
_symmetry_space_group_name_H-M   'P 1'
_cell_length_a   7.03433000
_cell_length_b   8.77267000
_cell_length_c   10.03880000
_cell_angle_alpha   74.86880000
_cell_angle_beta   88.50420000
_cell_angle_gamma   88.66560000
_symmetry_Int_Tables_number   1
_chemical_formula_structural   MnH22C30(NO)6
_chemical_formula_sum   'Mn1 H22 C30 N6 O6'
_cell_volume   597.72457849
_cell_formula_units_Z   1
loop_
 _symmetry_equiv_pos_site_id
 _symmetry_equiv_pos_as_xyz
  1  'x, y, z'
loop_
 _atom_site_type_symbol
 _atom_site_label
 _atom_site_symmetry_multiplicity
 _atom_site_fract_x
 _atom_site_fract_y
 _atom_site_fract_z
 _atom_site_occupancy
  Mn  Mn0  1  0.00000000  0.00000000  0.50000000  1.0
  H  H1  1  0.24901000  0.75098000  0.12412000  1.0
  H  H2  1  0.75099000  0.24902000  0.87588000  1.0
  H  H3  1  0.98153000  0.36160000  0.45714000  1.0
  H  H4  1  0.01847000  0.63841000  0.54286000  1.0
  H  H5  1  0.04617000  0.58872000  0.26043000  1.0
  H  H6  1  0.95383000  0.41128000  0.73957000  1.0
  H  H7  1  0.40339000  0.28247000  0.08486000  1.0
  H  H8  1  0.59661000  0.71753000  0.91514000  1.0
  H  H9  1  0.33002000  0.06575000  0.29146000  1.0
  H  H10  1  0.66997000  0.93425000  0.70854000  1.0
  H  H11  1  0.27984000  0.01473000  0.05620000  1.0
  H  H12  1  0.72016000  0.98527000  0.94380000  1.0
  H  H13  1  0.14409000  0.25180000  0.63526000  1.0
  H  H14  1  0.85591000  0.74821000  0.36474000  1.0
  H  H15  1  0.23709000  0.26731000  0.86963000  1.0
  H  H16  1  0.76291000  0.73269000  0.13037000  1.0
  H  H17  1  0.14648000  0.76168000  0.75749000  1.0
  H  H18  1  0.85353000  0.23832000  0.24251000  1.0
  H  H19  1  0.50297000  0.62338000  0.24828000  1.0
  H  H20  1  0.49703000  0.37662000  0.75172000  1.0
  H  H21  1  0.67362000  0.37132000  0.33891000  1.0
  H  H22  1  0.32638000  0.62868000  0.66109000  1.0
  C  C23  1  0.07768000  0.34770000  0.37461000  1.0
  C  C24  1  0.92232000  0.65230000  0.62539000  1.0
  C  C25  1  0.11335000  0.47528000  0.26265000  1.0
  C  C26  1  0.88665000  0.52472000  0.73735000  1.0
  C  C27  1  0.22508000  0.45419000  0.15132000  1.0
  C  C28  1  0.77492000  0.54581000  0.84868000  1.0
  C  C29  1  0.30935000  0.30474000  0.16567000  1.0
  C  C30  1  0.69065000  0.69526000  0.83433000  1.0
  C  C31  1  0.27025000  0.18316000  0.28175000  1.0
  C  C32  1  0.72974000  0.81684000  0.71825000  1.0
  C  C33  1  0.24471000  0.57727000  0.01769000  1.0
  C  C34  1  0.75529000  0.42273000  0.98231000  1.0
  C  C35  1  0.21987000  0.86873000  0.91987000  1.0
  C  C36  1  0.78013000  0.13127000  0.08013000  1.0
  C  C37  1  0.24466000  0.01393000  0.95140000  1.0
  C  C38  1  0.75534000  0.98606000  0.04860000  1.0
  C  C39  1  0.16494000  0.14520000  0.71808000  1.0
  C  C40  1  0.83506000  0.85480000  0.28192000  1.0
  C  C41  1  0.21921000  0.15273000  0.84852000  1.0
  C  C42  1  0.78079000  0.84727000  0.15149000  1.0
  C  C43  1  0.16713000  0.87112000  0.78555000  1.0
  C  C44  1  0.83287000  0.12888000  0.21444000  1.0
  C  C45  1  0.28593000  0.78895000  0.38818000  1.0
  C  C46  1  0.71406000  0.21105000  0.61182000  1.0
  C  C47  1  0.40107000  0.64341000  0.44743000  1.0
  C  C48  1  0.59892000  0.35659000  0.55257000  1.0
  C  C49  1  0.50197000  0.56914000  0.35870000  1.0
  C  C50  1  0.49803000  0.43086000  0.64130000  1.0
  C  C51  1  0.59876000  0.42725000  0.41006000  1.0
  C  C52  1  0.40124000  0.57275000  0.58994000  1.0
  N  N53  1  0.14507000  0.19912000  0.38311000  1.0
  N  N54  1  0.85494000  0.80088000  0.61689000  1.0
  N  N55  1  0.23671000  0.73042000  0.02701000  1.0
  N  N56  1  0.76329000  0.26958000  0.97299000  1.0
  N  N57  1  0.13511000  0.00705000  0.68783000  1.0
  N  N58  1  0.86489000  0.99296000  0.31218000  1.0
  O  O59  1  0.26356000  0.53807000  0.90746000  1.0
  O  O60  1  0.73644000  0.46193000  0.09254000  1.0
  O  O61  1  0.20763000  0.85545000  0.47730000  1.0
  O  O62  1  0.79237000  0.14456000  0.52270000  1.0
  O  O63  1  0.26753000  0.83797000  0.25893000  1.0
  O  O64  1  0.73247000  0.16203000  0.74107000  1.0
