# generated using pymatgen
data_CuH4C4SN2
_symmetry_space_group_name_H-M   'P 1'
_cell_length_a   5.62297000
_cell_length_b   6.84681000
_cell_length_c   13.96720000
_cell_angle_alpha   89.99990000
_cell_angle_beta   91.77320000
_cell_angle_gamma   89.99950000
_symmetry_Int_Tables_number   1
_chemical_formula_structural   CuH4C4SN2
_chemical_formula_sum   'Cu4 H16 C16 S4 N8'
_cell_volume   537.47142551
_cell_formula_units_Z   4
loop_
 _symmetry_equiv_pos_site_id
 _symmetry_equiv_pos_as_xyz
  1  'x, y, z'
loop_
 _atom_site_type_symbol
 _atom_site_label
 _atom_site_symmetry_multiplicity
 _atom_site_fract_x
 _atom_site_fract_y
 _atom_site_fract_z
 _atom_site_occupancy
  Cu  Cu0  1  0.88950000  0.31945000  0.16575000  1.0
  Cu  Cu1  1  0.38950000  0.18055000  0.66575000  1.0
  Cu  Cu2  1  0.11050000  0.68054000  0.83425000  1.0
  Cu  Cu3  1  0.61051000  0.81945000  0.33425000  1.0
  H  H4  1  0.52065000  0.62771000  0.16156000  1.0
  H  H5  1  0.02066000  0.87229000  0.66156000  1.0
  H  H6  1  0.47934000  0.37229000  0.83844000  1.0
  H  H7  1  0.97936000  0.12772000  0.33842000  1.0
  H  H8  1  0.18931000  0.92083000  0.01918000  1.0
  H  H9  1  0.68932000  0.57915000  0.51918000  1.0
  H  H10  1  0.81066000  0.07917000  0.98081000  1.0
  H  H11  1  0.31068000  0.42082000  0.48082000  1.0
  H  H12  1  0.15571000  0.80222000  0.13113000  1.0
  H  H13  1  0.65571000  0.69779000  0.63114000  1.0
  H  H14  1  0.84428000  0.19777000  0.86887000  1.0
  H  H15  1  0.34429000  0.30222000  0.36888000  1.0
  H  H16  1  0.97243000  0.73524000  0.02945000  1.0
  H  H17  1  0.47245000  0.76476000  0.52944000  1.0
  H  H18  1  0.02751000  0.26474000  0.97055000  1.0
  H  H19  1  0.52751000  0.23525000  0.47056000  1.0
  C  C20  1  0.51138000  0.57029000  0.08887000  1.0
  C  C21  1  0.01140000  0.92971000  0.58886000  1.0
  C  C22  1  0.48860000  0.42972000  0.91115000  1.0
  C  C23  1  0.98862000  0.07027000  0.41115000  1.0
  C  C24  1  0.33090000  0.63198000  0.02537000  1.0
  C  C25  1  0.83094000  0.86803000  0.52537000  1.0
  C  C26  1  0.66909000  0.36800000  0.97463000  1.0
  C  C27  1  0.16911000  0.13200000  0.47462000  1.0
  C  C28  1  0.15194000  0.77999000  0.05349000  1.0
  C  C29  1  0.65196000  0.72004000  0.55349000  1.0
  C  C30  1  0.84807000  0.22000000  0.94651000  1.0
  C  C31  1  0.34812000  0.28002000  0.44651000  1.0
  C  C32  1  0.38991000  0.14658000  0.18755000  1.0
  C  C33  1  0.88990000  0.35342000  0.68755000  1.0
  C  C34  1  0.61007000  0.85341000  0.81244000  1.0
  C  C35  1  0.11008000  0.64656000  0.31244000  1.0
  S  S36  1  0.65111000  0.04116000  0.19840000  1.0
  S  S37  1  0.15110000  0.45884000  0.69840000  1.0
  S  S38  1  0.34890000  0.95884000  0.80160000  1.0
  S  S39  1  0.84889000  0.54115000  0.30160000  1.0
  N  N40  1  0.68007000  0.44050000  0.06521000  1.0
  N  N41  1  0.18006000  0.05948000  0.56521000  1.0
  N  N42  1  0.31990000  0.55952000  0.93479000  1.0
  N  N43  1  0.81991000  0.94048000  0.43479000  1.0
  N  N44  1  0.20391000  0.22537000  0.17676000  1.0
  N  N45  1  0.70390000  0.27463000  0.67676000  1.0
  N  N46  1  0.79611000  0.77463000  0.82324000  1.0
  N  N47  1  0.29611000  0.72536000  0.32324000  1.0
