# generated using pymatgen
data_CdH14C20(NO)4
_symmetry_space_group_name_H-M   'P 1'
_cell_length_a   7.78025000
_cell_length_b   10.53720000
_cell_length_c   11.91240000
_cell_angle_alpha   73.51220000
_cell_angle_beta   75.78200000
_cell_angle_gamma   76.73330000
_symmetry_Int_Tables_number   1
_chemical_formula_structural   CdH14C20(NO)4
_chemical_formula_sum   'Cd2 H28 C40 N8 O8'
_cell_volume   894.24870315
_cell_formula_units_Z   2
loop_
 _symmetry_equiv_pos_site_id
 _symmetry_equiv_pos_as_xyz
  1  'x, y, z'
loop_
 _atom_site_type_symbol
 _atom_site_label
 _atom_site_symmetry_multiplicity
 _atom_site_fract_x
 _atom_site_fract_y
 _atom_site_fract_z
 _atom_site_occupancy
  Cd  Cd0  1  0.42366000  0.38748000  0.34709000  1.0
  Cd  Cd1  1  0.57634000  0.61252000  0.65291000  1.0
  H  H2  1  0.44196000  0.13976000  0.60377000  1.0
  H  H3  1  0.55804000  0.86024000  0.39623000  1.0
  H  H4  1  0.08712000  0.51226000  0.56933000  1.0
  H  H5  1  0.91288000  0.48774000  0.43067000  1.0
  H  H6  1  0.01399000  0.36599000  0.80132000  1.0
  H  H7  1  0.98601000  0.63401000  0.19868000  1.0
  H  H8  1  0.34945000  0.95693000  0.74840000  1.0
  H  H9  1  0.65055000  0.04307000  0.25160000  1.0
  H  H10  1  0.38449000  0.78167000  0.92958000  1.0
  H  H11  1  0.61549000  0.21833000  0.07043000  1.0
  H  H12  1  0.19131000  0.07970000  0.13938000  1.0
  H  H13  1  0.80870000  0.92030000  0.86062000  1.0
  H  H14  1  0.15959000  0.25564000  0.95669000  1.0
  H  H15  1  0.84042000  0.74435000  0.04331000  1.0
  H  H16  1  0.46174000  0.64554000  0.08400000  1.0
  H  H17  1  0.53826000  0.35446000  0.91600000  1.0
  H  H18  1  0.15850000  0.92039000  0.29164000  1.0
  H  H19  1  0.84149000  0.07961000  0.70836000  1.0
  H  H20  1  0.26128000  0.67597000  0.44072000  1.0
  H  H21  1  0.73871000  0.32403000  0.55928000  1.0
  H  H22  1  0.70346000  0.93059000  0.53049000  1.0
  H  H23  1  0.29655000  0.06941000  0.46950000  1.0
  H  H24  1  0.04635000  0.23035000  0.38219000  1.0
  H  H25  1  0.95366000  0.76965000  0.61781000  1.0
  H  H26  1  0.90025000  0.36956000  0.20707000  1.0
  H  H27  1  0.09974000  0.63044000  0.79293000  1.0
  H  H28  1  0.31394000  0.54571000  0.93382000  1.0
  H  H29  1  0.68605000  0.45430000  0.06618000  1.0
  C  C30  1  0.33734000  0.22223000  0.62381000  1.0
  C  C31  1  0.66266000  0.77777000  0.37619000  1.0
  C  C32  1  0.15089000  0.41270000  0.60976000  1.0
  C  C33  1  0.84911000  0.58730000  0.39024000  1.0
  C  C34  1  0.11394000  0.34224000  0.72608000  1.0
  C  C35  1  0.88606000  0.65776000  0.27392000  1.0
  C  C36  1  0.25018000  0.11833000  0.84042000  1.0
  C  C37  1  0.74982000  0.88166000  0.15958000  1.0
  C  C38  1  0.31454000  0.98484000  0.83381000  1.0
  C  C39  1  0.68546000  0.01516000  0.16619000  1.0
  C  C40  1  0.33289000  0.88472000  0.93748000  1.0
  C  C41  1  0.66710000  0.11528000  0.06252000  1.0
  C  C42  1  0.28705000  0.91745000  0.04835000  1.0
  C  C43  1  0.71294000  0.08255000  0.95165000  1.0
  C  C44  1  0.22341000  0.05129000  0.05459000  1.0
  C  C45  1  0.77659000  0.94871000  0.94542000  1.0
  C  C46  1  0.20492000  0.15151000  0.95092000  1.0
  C  C47  1  0.79509000  0.84849000  0.04908000  1.0
  C  C48  1  0.39454000  0.68546000  0.16129000  1.0
  C  C49  1  0.60546000  0.31454000  0.83872000  1.0
  C  C50  1  0.23725000  0.82816000  0.27085000  1.0
  C  C51  1  0.76273000  0.17184000  0.72915000  1.0
  C  C52  1  0.28736000  0.70556000  0.34395000  1.0
  C  C53  1  0.71263000  0.29443000  0.65606000  1.0
  C  C54  1  0.70698000  0.18666000  0.40256000  1.0
  C  C55  1  0.29302000  0.81334000  0.59743000  1.0
  C  C56  1  0.86008000  0.08955000  0.45031000  1.0
  C  C57  1  0.13993000  0.91045000  0.54968000  1.0
  C  C58  1  0.83412000  0.95977000  0.51660000  1.0
  C  C59  1  0.16589000  0.04023000  0.48339000  1.0
  C  C60  1  0.02648000  0.12953000  0.43396000  1.0
  C  C61  1  0.97353000  0.87047000  0.56603000  1.0
  C  C62  1  0.24888000  0.40525000  0.16335000  1.0
  C  C63  1  0.75112000  0.59475000  0.83666000  1.0
  C  C64  1  0.12164000  0.45010000  0.07799000  1.0
  C  C65  1  0.87835000  0.54991000  0.92201000  1.0
  C  C66  1  0.94427000  0.42504000  0.11586000  1.0
  C  C67  1  0.05573000  0.57497000  0.88415000  1.0
  C  C68  1  0.17657000  0.52551000  0.96184000  1.0
  C  C69  1  0.82343000  0.47450000  0.03816000  1.0
  N  N70  1  0.29047000  0.33711000  0.54687000  1.0
  N  N71  1  0.70953000  0.66289000  0.45313000  1.0
  N  N72  1  0.23332000  0.22133000  0.73452000  1.0
  N  N73  1  0.76668000  0.77867000  0.26548000  1.0
  N  N74  1  0.30565000  0.81493000  0.15459000  1.0
  N  N75  1  0.69434000  0.18507000  0.84541000  1.0
  N  N76  1  0.38525000  0.61772000  0.27488000  1.0
  N  N77  1  0.61474000  0.38228000  0.72512000  1.0
  O  O78  1  0.71373000  0.31276000  0.37742000  1.0
  O  O79  1  0.28627000  0.68723000  0.62257000  1.0
  O  O80  1  0.57320000  0.14361000  0.39223000  1.0
  O  O81  1  0.42681000  0.85638000  0.60777000  1.0
  O  O82  1  0.41753000  0.39142000  0.12470000  1.0
  O  O83  1  0.58247000  0.60859000  0.87530000  1.0
  O  O84  1  0.17727000  0.38996000  0.27462000  1.0
  O  O85  1  0.82273000  0.61004000  0.72538000  1.0
