# generated using pymatgen
data_CoH24C22(NO)6
_symmetry_space_group_name_H-M   'P 1'
_cell_length_a   8.41196000
_cell_length_b   11.47290000
_cell_length_c   12.21900000
_cell_angle_alpha   112.01400000
_cell_angle_beta   90.00000000
_cell_angle_gamma   90.00000000
_symmetry_Int_Tables_number   1
_chemical_formula_structural   CoH24C22(NO)6
_chemical_formula_sum   'Co2 H48 C44 N12 O12'
_cell_volume   1093.27405750
_cell_formula_units_Z   2
loop_
 _symmetry_equiv_pos_site_id
 _symmetry_equiv_pos_as_xyz
  1  'x, y, z'
loop_
 _atom_site_type_symbol
 _atom_site_label
 _atom_site_symmetry_multiplicity
 _atom_site_fract_x
 _atom_site_fract_y
 _atom_site_fract_z
 _atom_site_occupancy
  Co  Co0  1  0.00000000  0.99999000  0.99998000  1.0
  Co  Co1  1  0.49998000  0.50002000  0.00002000  1.0
  H  H2  1  0.92028000  0.01876000  0.23412000  1.0
  H  H3  1  0.42019000  0.48118000  0.76592000  1.0
  H  H4  1  0.07973000  0.98120000  0.76584000  1.0
  H  H5  1  0.57976000  0.51884000  0.23410000  1.0
  H  H6  1  0.96320000  0.16856000  0.43898000  1.0
  H  H7  1  0.46299000  0.33131000  0.56099000  1.0
  H  H8  1  0.03684000  0.83140000  0.56098000  1.0
  H  H9  1  0.53700000  0.66872000  0.43903000  1.0
  H  H10  1  0.27546000  0.37624000  0.29631000  1.0
  H  H11  1  0.77552000  0.12378000  0.70366000  1.0
  H  H12  1  0.72455000  0.62372000  0.70365000  1.0
  H  H13  1  0.22448000  0.87629000  0.29641000  1.0
  H  H14  1  0.21033000  0.22337000  0.09814000  1.0
  H  H15  1  0.71046000  0.27662000  0.90180000  1.0
  H  H16  1  0.78966000  0.77660000  0.90182000  1.0
  H  H17  1  0.28950000  0.72344000  0.09826000  1.0
  H  H18  1  0.29947000  0.53718000  0.49532000  1.0
  H  H19  1  0.79960000  0.96281000  0.50462000  1.0
  H  H20  1  0.70053000  0.46278000  0.50464000  1.0
  H  H21  1  0.20043000  0.03722000  0.49543000  1.0
  H  H22  1  0.22887000  0.64251000  0.73333000  1.0
  H  H23  1  0.72904000  0.85754000  0.26658000  1.0
  H  H24  1  0.77113000  0.35746000  0.26661000  1.0
  H  H25  1  0.27101000  0.14250000  0.73346000  1.0
  H  H26  1  0.88664000  0.50904000  0.79280000  1.0
  H  H27  1  0.38665000  0.99081000  0.20714000  1.0
  H  H28  1  0.11336000  0.49092000  0.20714000  1.0
  H  H29  1  0.61338000  0.00921000  0.79290000  1.0
  H  H30  1  0.06121000  0.58683000  0.86691000  1.0
  H  H31  1  0.56132000  0.91321000  0.13302000  1.0
  H  H32  1  0.93877000  0.41315000  0.13304000  1.0
  H  H33  1  0.43870000  0.08680000  0.86702000  1.0
  H  H34  1  0.02009000  0.30069000  0.77853000  1.0
  H  H35  1  0.51984000  0.19931000  0.22158000  1.0
  H  H36  1  0.97994000  0.69929000  0.22146000  1.0
  H  H37  1  0.48022000  0.80070000  0.77846000  1.0
  H  H38  1  0.94314000  0.39900000  0.91446000  1.0
  H  H39  1  0.44319000  0.10098000  0.08553000  1.0
  H  H40  1  0.05682000  0.60098000  0.08550000  1.0
  H  H41  1  0.55680000  0.89904000  0.91452000  1.0
  H  H42  1  0.93678000  0.79631000  0.06854000  1.0
  H  H43  1  0.43688000  0.70385000  0.93158000  1.0
  H  H44  1  0.06321000  0.20369000  0.93144000  1.0
  H  H45  1  0.56308000  0.29615000  0.06844000  1.0
  H  H46  1  0.11204000  0.80519000  0.01295000  1.0
  H  H47  1  0.61219000  0.69477000  0.98698000  1.0
  H  H48  1  0.88794000  0.19479000  0.98702000  1.0
  H  H49  1  0.38777000  0.30526000  0.01306000  1.0
  C  C50  1  0.99585000  0.10042000  0.25207000  1.0
  C  C51  1  0.49571000  0.39950000  0.74795000  1.0
  C  C52  1  0.00417000  0.89956000  0.74789000  1.0
  C  C53  1  0.50425000  0.60052000  0.25209000  1.0
  C  C54  1  0.02268000  0.18363000  0.36624000  1.0
  C  C55  1  0.52247000  0.31628000  0.63376000  1.0
  C  C56  1  0.97735000  0.81632000  0.63372000  1.0
  C  C57  1  0.47751000  0.68375000  0.36628000  1.0
  C  C58  1  0.12161000  0.28888000  0.38777000  1.0
  C  C59  1  0.62151000  0.21107000  0.61219000  1.0
  C  C60  1  0.87841000  0.71107000  0.61219000  1.0
  C  C61  1  0.37848000  0.78896000  0.38785000  1.0
  C  C62  1  0.19383000  0.29966000  0.28822000  1.0
  C  C63  1  0.69379000  0.20030000  0.71173000  1.0
  C  C64  1  0.80619000  0.70031000  0.71174000  1.0
  C  C65  1  0.30619000  0.79974000  0.28831000  1.0
  C  C66  1  0.15882000  0.21361000  0.17585000  1.0
  C  C67  1  0.65883000  0.28636000  0.82412000  1.0
  C  C68  1  0.84118000  0.78637000  0.82411000  1.0
  C  C69  1  0.34114000  0.71369000  0.17593000  1.0
  C  C70  1  0.13988000  0.38311000  0.50678000  1.0
  C  C71  1  0.63991000  0.11684000  0.49320000  1.0
  C  C72  1  0.86015000  0.61684000  0.49318000  1.0
  C  C73  1  0.36013000  0.88320000  0.50685000  1.0
  C  C74  1  0.22621000  0.49809000  0.54616000  1.0
  C  C75  1  0.72630000  0.00190000  0.45378000  1.0
  C  C76  1  0.77381000  0.50187000  0.45379000  1.0
  C  C77  1  0.27372000  0.99814000  0.54628000  1.0
  C  C78  1  0.19262000  0.55408000  0.66545000  1.0
  C  C79  1  0.69272000  0.94592000  0.33448000  1.0
  C  C80  1  0.80738000  0.44588000  0.33449000  1.0
  C  C81  1  0.30732000  0.05411000  0.66557000  1.0
  C  C82  1  0.01441000  0.49745000  0.80464000  1.0
  C  C83  1  0.51440000  0.00251000  0.19534000  1.0
  C  C84  1  0.98559000  0.50252000  0.19530000  1.0
  C  C85  1  0.48563000  0.99750000  0.80470000  1.0
  C  C86  1  0.03794000  0.39228000  0.85023000  1.0
  C  C87  1  0.53789000  0.10775000  0.14984000  1.0
  C  C88  1  0.96205000  0.60771000  0.14975000  1.0
  C  C89  1  0.46214000  0.89225000  0.85018000  1.0
  C  C90  1  0.19491000  0.38951000  0.91048000  1.0
  C  C91  1  0.69492000  0.11055000  0.08966000  1.0
  C  C92  1  0.80505000  0.61051000  0.08954000  1.0
  C  C93  1  0.30507000  0.88943000  0.91033000  1.0
  N  N94  1  0.05926000  0.11523000  0.15593000  1.0
  N  N95  1  0.55919000  0.38469000  0.84407000  1.0
  N  N96  1  0.94073000  0.88474000  0.84403000  1.0
  N  N97  1  0.44076000  0.61534000  0.15597000  1.0
  N  N98  1  0.05915000  0.37038000  0.59761000  1.0
  N  N99  1  0.55912000  0.12957000  0.40240000  1.0
  N  N100  1  0.94088000  0.62957000  0.40236000  1.0
  N  N101  1  0.44090000  0.87045000  0.59764000  1.0
  N  N102  1  0.09338000  0.47431000  0.69201000  1.0
  N  N103  1  0.59334000  0.02565000  0.30797000  1.0
  N  N104  1  0.90663000  0.52565000  0.30794000  1.0
  N  N105  1  0.40669000  0.97437000  0.69207000  1.0
  O  O106  1  0.27919000  0.48954000  0.94581000  1.0
  O  O107  1  0.77917000  0.01049000  0.05428000  1.0
  O  O108  1  0.72076000  0.51049000  0.05422000  1.0
  O  O109  1  0.22082000  0.98950000  0.94570000  1.0
  O  O110  1  0.22997000  0.28770000  0.92404000  1.0
  O  O111  1  0.73000000  0.21233000  0.07605000  1.0
  O  O112  1  0.77000000  0.71233000  0.07598000  1.0
  O  O113  1  0.26998000  0.78765000  0.92392000  1.0
  O  O114  1  0.03193000  0.84971000  0.07446000  1.0
  O  O115  1  0.53193000  0.65034000  0.92556000  1.0
  O  O116  1  0.96806000  0.15028000  0.92551000  1.0
  O  O117  1  0.46804000  0.34968000  0.07447000  1.0
