# generated using pymatgen
data_Zr6H19C50Cl10O32F
_symmetry_space_group_name_H-M   'P 1'
_cell_length_a   14.78340000
_cell_length_b   14.79960000
_cell_length_c   14.79127831
_cell_angle_alpha   60.23784957
_cell_angle_beta   89.75471478
_cell_angle_gamma   119.76010000
_symmetry_Int_Tables_number   1
_chemical_formula_structural   Zr6H19C50Cl10O32F
_chemical_formula_sum   'Zr6 H19 C50 Cl10 O32 F1'
_cell_volume   2299.89632434
_cell_formula_units_Z   1
loop_
 _symmetry_equiv_pos_site_id
 _symmetry_equiv_pos_as_xyz
  1  'x, y, z'
loop_
 _atom_site_type_symbol
 _atom_site_label
 _atom_site_symmetry_multiplicity
 _atom_site_fract_x
 _atom_site_fract_y
 _atom_site_fract_z
 _atom_site_occupancy
  Zr  Zr0  1  0.88319000  0.50521000  0.61634000  1.0
  Zr  Zr1  1  0.11680000  0.49401000  0.38283000  1.0
  Zr  Zr2  1  0.87868000  0.26186000  0.62134000  1.0
  Zr  Zr3  1  0.12235000  0.73784000  0.37789000  1.0
  Zr  Zr4  1  0.88092000  0.49992000  0.38041000  1.0
  Zr  Zr5  1  0.11968000  0.49979000  0.61908000  1.0
  H  H6  1  0.71844000  0.31676000  0.59372000  1.0
  H  H7  1  0.09448000  0.68304000  0.21823000  1.0
  H  H8  1  0.09058000  0.30811000  0.59744000  1.0
  H  H9  1  0.09829000  0.69169000  0.58966000  1.0
  H  H10  1  0.58410000  0.47859000  0.37393000  1.0
  H  H11  1  0.43610000  0.56171000  0.60147000  1.0
  H  H12  1  0.10239000  0.43960000  0.93492000  1.0
  H  H13  1  0.88318000  0.53552000  0.07648000  1.0
  H  H14  1  0.12122000  0.04300000  0.10974000  1.0
  H  H15  1  0.86043000  0.95618000  0.90890000  1.0
  H  H16  1  0.41149000  0.04326000  0.35779000  1.0
  H  H17  1  0.61033000  0.95683000  0.62081000  1.0
  H  H18  1  0.60157000  0.94793000  0.92039000  1.0
  H  H19  1  0.62113000  0.29015000  0.97395000  1.0
  H  H20  1  0.53636000  0.28721000  0.88888000  1.0
  H  H21  1  0.36636000  0.10768000  0.05885000  1.0
  H  H22  1  0.45126000  0.11088000  0.14387000  1.0
  H  H23  1  0.85777000  0.76881000  0.62718000  1.0
  H  H24  1  0.12634000  0.23032000  0.35604000  1.0
  C  C25  1  0.70603000  0.51814000  0.49427000  1.0
  C  C26  1  0.99581000  0.48395000  0.20434000  1.0
  C  C27  1  0.30493000  0.50285000  0.49353000  1.0
  C  C28  1  0.99529000  0.49927000  0.80318000  1.0
  C  C29  1  0.70238000  0.20218000  0.80705000  1.0
  C  C30  1  0.00394000  0.81127000  0.48615000  1.0
  C  C31  1  0.30761000  0.79617000  0.20253000  1.0
  C  C32  1  0.98666000  0.18786000  0.50361000  1.0
  C  C33  1  0.70009000  0.20096000  0.49241000  1.0
  C  C34  1  0.99671000  0.20114000  0.81113000  1.0
  C  C35  1  0.31209000  0.79846000  0.49590000  1.0
  C  C36  1  0.99373000  0.79892000  0.19889000  1.0
  C  C37  1  0.41022000  0.51139000  0.48649000  1.0
  C  C38  1  0.60798000  0.52452000  0.49185000  1.0
  C  C39  1  0.45368000  0.48967000  0.41997000  1.0
  C  C40  1  0.56635000  0.55024000  0.55556000  1.0
  C  C41  1  0.55092000  0.49671000  0.42398000  1.0
  C  C42  1  0.46899000  0.54286000  0.55195000  1.0
  C  C43  1  0.99555000  0.48122000  0.10444000  1.0
  C  C44  1  0.99082000  0.49495000  0.90649000  1.0
  C  C45  1  0.05775000  0.45317000  0.06404000  1.0
  C  C46  1  0.92765000  0.52163000  0.94754000  1.0
  C  C47  1  0.05439000  0.46080000  0.96657000  1.0
  C  C48  1  0.93106000  0.51412000  0.04493000  1.0
  C  C49  1  0.99617000  0.10177000  0.91470000  1.0
  C  C50  1  0.98725000  0.89769000  0.10219000  1.0
  C  C51  1  0.06984000  0.12571000  0.97352000  1.0
  C  C52  1  0.91150000  0.87342000  0.04532000  1.0
  C  C53  1  0.06407000  0.02440000  0.06488000  1.0
  C  C54  1  0.91767000  0.97483000  0.95365000  1.0
  C  C55  1  0.60405000  0.10212000  0.48532000  1.0
  C  C56  1  0.41626000  0.89778000  0.49474000  1.0
  C  C57  1  0.54814000  0.12636000  0.40853000  1.0
  C  C58  1  0.47479000  0.87391000  0.56874000  1.0
  C  C59  1  0.45611000  0.02479000  0.41524000  1.0
  C  C60  1  0.56609000  0.97535000  0.56294000  1.0
  C  C61  1  0.60564000  0.10104000  0.91051000  1.0
  C  C62  1  0.41088000  0.89720000  0.10598000  1.0
  C  C63  1  0.55139000  0.12499000  0.96388000  1.0
  C  C64  1  0.46893000  0.87536000  0.05195000  1.0
  C  C65  1  0.45753000  0.02595000  0.05793000  1.0
  C  C66  1  0.56226000  0.97241000  0.95805000  1.0
  C  C67  1  0.54947000  0.22754000  0.96177000  1.0
  C  C68  1  0.44308000  0.11536000  0.06819000  1.0
  C  C69  1  0.98343000  0.08629000  0.50095000  1.0
  C  C70  1  0.00122000  0.91280000  0.48288000  1.0
  C  C71  1  0.90557000  0.95388000  0.57761000  1.0
  C  C72  1  0.07709000  0.04518000  0.40427000  1.0
  C  C73  1  0.91646000  0.87085000  0.56748000  1.0
  C  C74  1  0.06717000  0.12826000  0.41530000  1.0
  Cl  Cl75  1  0.39303000  0.45051000  0.33409000  1.0
  Cl  Cl76  1  0.62933000  0.59322000  0.63877000  1.0
  Cl  Cl77  1  0.13824000  0.40655000  0.12875000  1.0
  Cl  Cl78  1  0.84684000  0.56817000  0.88286000  1.0
  Cl  Cl79  1  0.16968000  0.27503000  0.94058000  1.0
  Cl  Cl80  1  0.80953000  0.72395000  0.07996000  1.0
  Cl  Cl81  1  0.58446000  0.27594000  0.30455000  1.0
  Cl  Cl82  1  0.44146000  0.72463000  0.66901000  1.0
  Cl  Cl83  1  0.79488000  0.88437000  0.68631000  1.0
  Cl  Cl84  1  0.18453000  0.11456000  0.29242000  1.0
  O  O85  1  0.74344000  0.51274000  0.57294000  1.0
  O  O86  1  0.07325000  0.48698000  0.24312000  1.0
  O  O87  1  0.26066000  0.49661000  0.42134000  1.0
  O  O88  1  0.92120000  0.50224000  0.76069000  1.0
  O  O89  1  0.73986000  0.16468000  0.76507000  1.0
  O  O90  1  0.08186000  0.84500000  0.41315000  1.0
  O  O91  1  0.26690000  0.83599000  0.23846000  1.0
  O  O92  1  0.91371000  0.15419000  0.58155000  1.0
  O  O93  1  0.73847000  0.31708000  0.41967000  1.0
  O  O94  1  0.07494000  0.31724000  0.76735000  1.0
  O  O95  1  0.26791000  0.68244000  0.57449000  1.0
  O  O96  1  0.92036000  0.68276000  0.23794000  1.0
  O  O97  1  0.92009000  0.16183000  0.77255000  1.0
  O  O98  1  0.27343000  0.83782000  0.41937000  1.0
  O  O99  1  0.07338000  0.83850000  0.23430000  1.0
  O  O100  1  0.73550000  0.16147000  0.57202000  1.0
  O  O101  1  0.73958000  0.31748000  0.76664000  1.0
  O  O102  1  0.06491000  0.30234000  0.42741000  1.0
  O  O103  1  0.26540000  0.68023000  0.24159000  1.0
  O  O104  1  0.92782000  0.69679000  0.56457000  1.0
  O  O105  1  0.07307000  0.49938000  0.76531000  1.0
  O  O106  1  0.74239000  0.51361000  0.41930000  1.0
  O  O107  1  0.92021000  0.48752000  0.24102000  1.0
  O  O108  1  0.26672000  0.50174000  0.57190000  1.0
  O  O109  1  0.07065000  0.63730000  0.56388000  1.0
  O  O110  1  0.06444000  0.36215000  0.57021000  1.0
  O  O111  1  0.06706000  0.63066000  0.29828000  1.0
  O  O112  1  0.79852000  0.36894000  0.56668000  1.0
  O  O113  1  0.94832000  0.39838000  0.45249000  1.0
  O  O114  1  0.95303000  0.60118000  0.44798000  1.0
  O  O115  1  0.14868000  0.59605000  0.45052000  1.0
  O  O116  1  0.95082000  0.40333000  0.64823000  1.0
  F  F117  1  0.43350000  0.75476000  0.09091000  1.0
