# generated using pymatgen
data_ZnH21C25(NO2)5
_symmetry_space_group_name_H-M   'P 1'
_cell_length_a   10.27310000
_cell_length_b   12.70110000
_cell_length_c   13.26330000
_cell_angle_alpha   112.28800000
_cell_angle_beta   108.42700000
_cell_angle_gamma   90.16960000
_symmetry_Int_Tables_number   1
_chemical_formula_structural   ZnH21C25(NO2)5
_chemical_formula_sum   'Zn2 H42 C50 N10 O20'
_cell_volume   1504.24578093
_cell_formula_units_Z   2
loop_
 _symmetry_equiv_pos_site_id
 _symmetry_equiv_pos_as_xyz
  1  'x, y, z'
loop_
 _atom_site_type_symbol
 _atom_site_label
 _atom_site_symmetry_multiplicity
 _atom_site_fract_x
 _atom_site_fract_y
 _atom_site_fract_z
 _atom_site_occupancy
  Zn  Zn0  1  0.70815000  0.33923000  0.73056000  1.0
  Zn  Zn1  1  0.29185000  0.66077000  0.26944000  1.0
  H  H2  1  0.27510000  0.19050000  0.01217000  1.0
  H  H3  1  0.72490000  0.80950000  0.98782000  1.0
  H  H4  1  0.11496000  0.90425000  0.67620000  1.0
  H  H5  1  0.88504000  0.09574000  0.32380000  1.0
  H  H6  1  0.36188000  0.84997000  0.97786000  1.0
  H  H7  1  0.63812000  0.15003000  0.02215000  1.0
  H  H8  1  0.52838000  0.96451000  0.15475000  1.0
  H  H9  1  0.47161000  0.03549000  0.84525000  1.0
  H  H10  1  0.36598000  0.94678000  0.17467000  1.0
  H  H11  1  0.63402000  0.05323000  0.82534000  1.0
  H  H12  1  0.57449000  0.95038000  0.36587000  1.0
  H  H13  1  0.42551000  0.04962000  0.63413000  1.0
  H  H14  1  0.67571000  0.08088000  0.57525000  1.0
  H  H15  1  0.32429000  0.91912000  0.42475000  1.0
  H  H16  1  0.57076000  0.36707000  0.50533000  1.0
  H  H17  1  0.42924000  0.63294000  0.49468000  1.0
  H  H18  1  0.46645000  0.24898000  0.29305000  1.0
  H  H19  1  0.53355000  0.75102000  0.70695000  1.0
  H  H20  1  0.17086000  0.28000000  0.92650000  1.0
  H  H21  1  0.82914000  0.72000000  0.07349000  1.0
  H  H22  1  0.07144000  0.27813000  0.78910000  1.0
  H  H23  1  0.92856000  0.72187000  0.21089000  1.0
  H  H24  1  0.42407000  0.33779000  0.99289000  1.0
  H  H25  1  0.57593000  0.66221000  0.00710000  1.0
  H  H26  1  0.63353000  0.37057000  0.94302000  1.0
  H  H27  1  0.36647000  0.62943000  0.05697000  1.0
  H  H28  1  0.40373000  0.24905000  0.59318000  1.0
  H  H29  1  0.59627000  0.75094000  0.40682000  1.0
  H  H30  1  0.18660000  0.20916000  0.62689000  1.0
  H  H31  1  0.81340000  0.79084000  0.37310000  1.0
  H  H32  1  0.35976000  0.52616000  0.77916000  1.0
  H  H33  1  0.64025000  0.47385000  0.22085000  1.0
  H  H34  1  0.27405000  0.54012000  0.64563000  1.0
  H  H35  1  0.72596000  0.45988000  0.35437000  1.0
  H  H36  1  0.16376000  0.60973000  0.90886000  1.0
  H  H37  1  0.83624000  0.39028000  0.09115000  1.0
  H  H38  1  0.94739000  0.51610000  0.89903000  1.0
  H  H39  1  0.05261000  0.48391000  0.10096000  1.0
  H  H40  1  0.85317000  0.30790000  0.54915000  1.0
  H  H41  1  0.14684000  0.69209000  0.45085000  1.0
  H  H42  1  0.06712000  0.39100000  0.54473000  1.0
  H  H43  1  0.93289000  0.60899000  0.45528000  1.0
  C  C44  1  0.32354000  0.02558000  0.00596000  1.0
  C  C45  1  0.67646000  0.97442000  0.99404000  1.0
  C  C46  1  0.26198000  0.10012000  0.95506000  1.0
  C  C47  1  0.73802000  0.89988000  0.04495000  1.0
  C  C48  1  0.18607000  0.05612000  0.83676000  1.0
  C  C49  1  0.81393000  0.94387000  0.16324000  1.0
  C  C50  1  0.17388000  0.93881000  0.76862000  1.0
  C  C51  1  0.82612000  0.06119000  0.23139000  1.0
  C  C52  1  0.23770000  0.86634000  0.82046000  1.0
  C  C53  1  0.76230000  0.13366000  0.17954000  1.0
  C  C54  1  0.31368000  0.90842000  0.93984000  1.0
  C  C55  1  0.68632000  0.09158000  0.06016000  1.0
  C  C56  1  0.44803000  0.01062000  0.18539000  1.0
  C  C57  1  0.55197000  0.98938000  0.81461000  1.0
  C  C58  1  0.51084000  0.08873000  0.31149000  1.0
  C  C59  1  0.48917000  0.91127000  0.68851000  1.0
  C  C60  1  0.57142000  0.04249000  0.39299000  1.0
  C  C61  1  0.42858000  0.95751000  0.60701000  1.0
  C  C62  1  0.62789000  0.11426000  0.50983000  1.0
  C  C63  1  0.37212000  0.88575000  0.49017000  1.0
  C  C64  1  0.56946000  0.27411000  0.47088000  1.0
  C  C65  1  0.43054000  0.72589000  0.52912000  1.0
  C  C66  1  0.51087000  0.20778000  0.35240000  1.0
  C  C67  1  0.48912000  0.79222000  0.64760000  1.0
  C  C68  1  0.15799000  0.24363000  0.83394000  1.0
  C  C69  1  0.84201000  0.75636000  0.16605000  1.0
  C  C70  1  0.28784000  0.27101000  0.81340000  1.0
  C  C71  1  0.71216000  0.72898000  0.18659000  1.0
  C  C72  1  0.41541000  0.31682000  0.90306000  1.0
  C  C73  1  0.58459000  0.68317000  0.09693000  1.0
  C  C74  1  0.53202000  0.33475000  0.87615000  1.0
  C  C75  1  0.46797000  0.66524000  0.12384000  1.0
  C  C76  1  0.40395000  0.26658000  0.68029000  1.0
  C  C77  1  0.59604000  0.73341000  0.31970000  1.0
  C  C78  1  0.28345000  0.24560000  0.69983000  1.0
  C  C79  1  0.71655000  0.75439000  0.30016000  1.0
  C  C80  1  0.22036000  0.74297000  0.74416000  1.0
  C  C81  1  0.77965000  0.25703000  0.25585000  1.0
  C  C82  1  0.27174000  0.55831000  0.73273000  1.0
  C  C83  1  0.72827000  0.44169000  0.26727000  1.0
  C  C84  1  0.13745000  0.50558000  0.72797000  1.0
  C  C85  1  0.86255000  0.49442000  0.27203000  1.0
  C  C86  1  0.10047000  0.54130000  0.82746000  1.0
  C  C87  1  0.89952000  0.45871000  0.17254000  1.0
  C  C88  1  0.97800000  0.49024000  0.82269000  1.0
  C  C89  1  0.02200000  0.50977000  0.17732000  1.0
  C  C90  1  0.92554000  0.37344000  0.62804000  1.0
  C  C91  1  0.07447000  0.62655000  0.37196000  1.0
  C  C92  1  0.04701000  0.42023000  0.62629000  1.0
  C  C93  1  0.95300000  0.57976000  0.37371000  1.0
  N  N94  1  0.62686000  0.22910000  0.54950000  1.0
  N  N95  1  0.37314000  0.77090000  0.45050000  1.0
  N  N96  1  0.52708000  0.30961000  0.76675000  1.0
  N  N97  1  0.47291000  0.69039000  0.23324000  1.0
  N  N98  1  0.89118000  0.40718000  0.72448000  1.0
  N  N99  1  0.10883000  0.59282000  0.27552000  1.0
  N  N100  1  0.83569000  0.21854000  0.86376000  1.0
  N  N101  1  0.16431000  0.78146000  0.13624000  1.0
  N  N102  1  0.63733000  0.56057000  0.79800000  1.0
  N  N103  1  0.36267000  0.43943000  0.20199000  1.0
  O  O104  1  0.39148000  0.07865000  0.12267000  1.0
  O  O105  1  0.60851000  0.92135000  0.87733000  1.0
  O  O106  1  0.11649000  0.12097000  0.78000000  1.0
  O  O107  1  0.88352000  0.87902000  0.22000000  1.0
  O  O108  1  0.14779000  0.69926000  0.64121000  1.0
  O  O109  1  0.85221000  0.30073000  0.35879000  1.0
  O  O110  1  0.29465000  0.68077000  0.80065000  1.0
  O  O111  1  0.70535000  0.31923000  0.19935000  1.0
  O  O112  1  0.83803000  0.32870000  0.88995000  1.0
  O  O113  1  0.16198000  0.67130000  0.11005000  1.0
  O  O114  1  0.76615000  0.15190000  0.75971000  1.0
  O  O115  1  0.23385000  0.84811000  0.24028000  1.0
  O  O116  1  0.89742000  0.18346000  0.93884000  1.0
  O  O117  1  0.10257000  0.81654000  0.06116000  1.0
  O  O118  1  0.60443000  0.48761000  0.69221000  1.0
  O  O119  1  0.39556000  0.51239000  0.30779000  1.0
  O  O120  1  0.71383000  0.53221000  0.87760000  1.0
  O  O121  1  0.28616000  0.46779000  0.12239000  1.0
  O  O122  1  0.59344000  0.65541000  0.82180000  1.0
  O  O123  1  0.40656000  0.34459000  0.17819000  1.0
