# generated using pymatgen
data_Zn3H8C50I8(NO8)2
_symmetry_space_group_name_H-M   'P 1'
_cell_length_a   23.61930000
_cell_length_b   23.61930000
_cell_length_c   32.62358870
_cell_angle_alpha   111.23044856
_cell_angle_beta   111.21871278
_cell_angle_gamma   89.99440000
_symmetry_Int_Tables_number   1
_chemical_formula_structural   Zn3H8C50I8(NO8)2
_chemical_formula_sum   'Zn6 H16 C100 I16 N4 O32'
_cell_volume   15633.82150429
_cell_formula_units_Z   2
loop_
 _symmetry_equiv_pos_site_id
 _symmetry_equiv_pos_as_xyz
  1  'x, y, z'
loop_
 _atom_site_type_symbol
 _atom_site_label
 _atom_site_symmetry_multiplicity
 _atom_site_fract_x
 _atom_site_fract_y
 _atom_site_fract_z
 _atom_site_occupancy
  Zn  Zn0  1  0.02328000  0.02330000  0.04659000  1.0
  Zn  Zn1  1  0.05506000  0.49999000  0.00000000  1.0
  Zn  Zn2  1  0.49999000  0.05506000  0.00000000  1.0
  Zn  Zn3  1  0.94493000  0.50000000  0.00000000  1.0
  Zn  Zn4  1  0.97671000  0.97669000  0.95341000  1.0
  Zn  Zn5  1  0.50000000  0.94494000  0.00000000  1.0
  H  H6  1  0.36115000  0.87584000  0.53424000  1.0
  H  H7  1  0.65839000  0.36116000  0.53425000  1.0
  H  H8  1  0.17307000  0.65839000  0.53422000  1.0
  H  H9  1  0.87586000  0.17306000  0.53422000  1.0
  H  H10  1  0.82691000  0.12414000  0.46575000  1.0
  H  H11  1  0.12417000  0.63886000  0.46578000  1.0
  H  H12  1  0.63885000  0.34164000  0.46578000  1.0
  H  H13  1  0.34160000  0.82691000  0.46576000  1.0
  H  H14  1  0.40139000  0.92129000  0.62249000  1.0
  H  H15  1  0.70122000  0.40146000  0.62250000  1.0
  H  H16  1  0.22103000  0.70120000  0.62247000  1.0
  H  H17  1  0.92129000  0.22106000  0.62248000  1.0
  H  H18  1  0.77896000  0.07872000  0.37750000  1.0
  H  H19  1  0.07873000  0.59857000  0.37753000  1.0
  H  H20  1  0.59859000  0.29882000  0.37752000  1.0
  H  H21  1  0.29880000  0.77890000  0.37751000  1.0
  C  C22  1  0.99996000  0.10931000  0.99996000  1.0
  C  C23  1  0.69842000  0.34381000  0.55250000  1.0
  C  C24  1  0.88867000  0.36953000  0.82867000  1.0
  C  C25  1  0.63047000  0.11132000  0.17131000  1.0
  C  C26  1  0.11128000  0.54082000  0.17130000  1.0
  C  C27  1  0.54086000  0.06000000  0.17133000  1.0
  C  C28  1  0.05996000  0.63045000  0.17133000  1.0
  C  C29  1  0.45912000  0.88863000  0.82867000  1.0
  C  C30  1  0.94001000  0.45916000  0.82869000  1.0
  C  C31  1  0.36951000  0.93998000  0.82870000  1.0
  C  C32  1  0.20869000  0.69841000  0.55249000  1.0
  C  C33  1  0.42682000  0.92679000  0.85370000  1.0
  C  C34  1  0.92685000  0.42684000  0.85369000  1.0
  C  C35  1  0.57315000  0.07317000  0.14631000  1.0
  C  C36  1  0.07309000  0.57312000  0.14631000  1.0
  C  C37  1  0.85408000  0.20867000  0.55248000  1.0
  C  C38  1  0.37689000  0.87692000  0.75383000  1.0
  C  C39  1  0.87691000  0.37694000  0.75382000  1.0
  C  C40  1  0.62312000  0.12309000  0.24618000  1.0
  C  C41  1  0.12309000  0.62306000  0.24617000  1.0
  C  C42  1  0.17008000  0.99998000  0.00004000  1.0
  C  C43  1  0.79131000  0.14592000  0.44750000  1.0
  C  C44  1  0.99994000  0.17004000  0.99996000  1.0
  C  C45  1  0.82993000  0.00003000  0.99999000  1.0
  C  C46  1  0.00004000  0.82994000  0.00001000  1.0
  C  C47  1  0.22190000  0.99999000  0.00001000  1.0
  C  C48  1  0.99998000  0.22189000  0.99999000  1.0
  C  C49  1  0.77810000  0.00001000  0.00000000  1.0
  C  C50  1  0.14592000  0.65620000  0.44751000  1.0
  C  C51  1  0.00001000  0.77809000  0.00000000  1.0
  C  C52  1  0.27884000  0.99999000  0.00000000  1.0
  C  C53  1  0.99999000  0.27884000  0.00000000  1.0
  C  C54  1  0.72115000  0.00001000  1.00000000  1.0
  C  C55  1  0.00001000  0.72114000  1.00000000  1.0
  C  C56  1  0.65620000  0.30160000  0.44752000  1.0
  C  C57  1  0.33067000  0.00000000  1.00000000  1.0
  C  C58  1  0.00000000  0.33067000  0.00000000  1.0
  C  C59  1  0.66932000  0.00002000  0.00000000  1.0
  C  C60  1  0.00002000  0.66933000  1.00000000  1.0
  C  C61  1  0.30157000  0.79131000  0.44751000  1.0
  C  C62  1  0.45387000  0.95382000  0.90776000  1.0
  C  C63  1  0.95394000  0.45385000  0.90776000  1.0
  C  C64  1  0.54609000  0.04618000  0.09224000  1.0
  C  C65  1  0.04606000  0.54611000  0.09224000  1.0
  C  C66  1  0.39140000  0.99999000  0.00001000  1.0
  C  C67  1  0.34380000  0.85406000  0.55249000  1.0
  C  C68  1  0.00000000  0.39139000  0.00000000  1.0
  C  C69  1  0.60859000  0.00001000  0.00000000  1.0
  C  C70  1  0.00001000  0.60859000  0.00000000  1.0
  C  C71  1  0.29900000  0.80167000  0.52605000  1.0
  C  C72  1  0.72437000  0.29899000  0.52606000  1.0
  C  C73  1  0.22707000  0.72437000  0.52605000  1.0
  C  C74  1  0.80168000  0.22705000  0.52605000  1.0
  C  C75  1  0.77294000  0.19831000  0.47394000  1.0
  C  C76  1  0.19832000  0.70102000  0.47395000  1.0
  C  C77  1  0.70100000  0.27563000  0.47395000  1.0
  C  C78  1  0.27562000  0.77295000  0.47395000  1.0
  C  C79  1  0.27551000  0.77549000  0.55100000  1.0
  C  C80  1  0.77550000  0.27550000  0.55099000  1.0
  C  C81  1  0.72451000  0.22451000  0.44901000  1.0
  C  C82  1  0.22448000  0.72451000  0.44900000  1.0
  C  C83  1  0.89064000  0.00000000  0.99997000  1.0
  C  C84  1  0.36693000  0.88018000  0.60229000  1.0
  C  C85  1  0.72212000  0.36697000  0.60229000  1.0
  C  C86  1  0.23533000  0.72211000  0.60228000  1.0
  C  C87  1  0.88019000  0.23535000  0.60228000  1.0
  C  C88  1  0.76468000  0.11983000  0.39771000  1.0
  C  C89  1  0.00003000  0.89067000  0.00003000  1.0
  C  C90  1  0.11983000  0.63306000  0.39772000  1.0
  C  C91  1  0.63307000  0.27791000  0.39772000  1.0
  C  C92  1  0.27789000  0.76464000  0.39771000  1.0
  C  C93  1  0.10935000  0.00000000  0.00004000  1.0
  C  C94  1  0.34659000  0.85387000  0.62725000  1.0
  C  C95  1  0.77341000  0.34665000  0.62725000  1.0
  C  C96  1  0.28062000  0.77340000  0.62725000  1.0
  C  C97  1  0.85387000  0.28066000  0.62724000  1.0
  C  C98  1  0.71940000  0.14616000  0.37275000  1.0
  C  C99  1  0.14615000  0.65337000  0.37275000  1.0
  C  C100  1  0.65342000  0.22663000  0.37276000  1.0
  C  C101  1  0.22662000  0.71934000  0.37275000  1.0
  C  C102  1  0.30103000  0.80103000  0.60207000  1.0
  C  C103  1  0.80104000  0.30106000  0.60206000  1.0
  C  C104  1  0.69900000  0.19899000  0.39794000  1.0
  C  C105  1  0.19896000  0.69896000  0.39793000  1.0
  C  C106  1  0.37254000  0.88210000  0.67987000  1.0
  C  C107  1  0.79781000  0.37261000  0.67987000  1.0
  C  C108  1  0.30726000  0.79782000  0.67987000  1.0
  C  C109  1  0.88209000  0.30732000  0.67987000  1.0
  C  C110  1  0.69275000  0.11794000  0.32013000  1.0
  C  C111  1  0.11794000  0.62739000  0.32013000  1.0
  C  C112  1  0.62745000  0.20223000  0.32013000  1.0
  C  C113  1  0.20223000  0.69268000  0.32013000  1.0
  C  C114  1  0.43325000  0.86217000  0.77857000  1.0
  C  C115  1  0.91640000  0.43331000  0.77860000  1.0
  C  C116  1  0.34528000  0.91640000  0.77860000  1.0
  C  C117  1  0.86217000  0.34532000  0.77857000  1.0
  C  C118  1  0.65471000  0.13781000  0.22140000  1.0
  C  C119  1  0.13780000  0.56668000  0.22140000  1.0
  C  C120  1  0.56675000  0.08360000  0.22143000  1.0
  C  C121  1  0.08360000  0.65469000  0.22143000  1.0
  I  I122  1  0.47561000  0.79979000  0.73898000  1.0
  I  I123  1  0.93928000  0.47567000  0.73905000  1.0
  I  I124  1  0.26338000  0.93927000  0.73905000  1.0
  I  I125  1  0.79974000  0.26342000  0.73899000  1.0
  I  I126  1  0.73662000  0.20023000  0.26095000  1.0
  I  I127  1  0.20023000  0.52433000  0.26096000  1.0
  I  I128  1  0.52443000  0.06076000  0.26101000  1.0
  I  I129  1  0.06081000  0.73663000  0.26102000  1.0
  I  I130  1  0.54711000  0.87475000  0.86721000  1.0
  I  I131  1  0.99251000  0.54713000  0.86728000  1.0
  I  I132  1  0.32014000  0.99252000  0.86728000  1.0
  I  I133  1  0.87478000  0.32009000  0.86722000  1.0
  I  I134  1  0.67985000  0.12523000  0.13272000  1.0
  I  I135  1  0.12524000  0.45287000  0.13272000  1.0
  I  I136  1  0.45287000  0.00756000  0.13278000  1.0
  I  I137  1  0.00753000  0.67990000  0.13279000  1.0
  N  N138  1  0.35133000  0.85139000  0.70273000  1.0
  N  N139  1  0.85137000  0.35141000  0.70272000  1.0
  N  N140  1  0.64869000  0.14865000  0.29728000  1.0
  N  N141  1  0.14865000  0.64861000  0.29727000  1.0
  O  O142  1  0.01898000  0.10571000  0.04081000  1.0
  O  O143  1  0.93511000  0.01897000  0.04083000  1.0
  O  O144  1  0.02189000  0.93513000  0.04088000  1.0
  O  O145  1  0.10574000  0.02185000  0.04090000  1.0
  O  O146  1  0.97814000  0.89428000  0.95917000  1.0
  O  O147  1  0.89425000  0.98101000  0.95912000  1.0
  O  O148  1  0.98096000  0.06484000  0.95910000  1.0
  O  O149  1  0.06490000  0.97817000  0.95919000  1.0
  O  O150  1  0.45417000  0.91685000  0.92813000  1.0
  O  O151  1  0.01128000  0.45413000  0.92810000  1.0
  O  O152  1  0.47395000  0.01116000  0.92812000  1.0
  O  O153  1  0.91698000  0.47394000  0.92815000  1.0
  O  O154  1  0.52604000  0.08318000  0.07190000  1.0
  O  O155  1  0.08303000  0.54583000  0.07188000  1.0
  O  O156  1  0.54579000  0.98884000  0.07185000  1.0
  O  O157  1  0.98872000  0.52604000  0.07187000  1.0
  O  O158  1  0.41840000  0.95513000  0.00620000  1.0
  O  O159  1  0.05104000  0.41840000  0.00618000  1.0
  O  O160  1  0.58776000  0.05105000  0.00617000  1.0
  O  O161  1  0.95513000  0.58779000  0.00617000  1.0
  O  O162  1  0.41222000  0.04486000  0.99382000  1.0
  O  O163  1  0.04488000  0.58159000  0.99383000  1.0
  O  O164  1  0.58163000  0.94895000  0.99384000  1.0
  O  O165  1  0.94893000  0.41220000  0.99380000  1.0
  O  O166  1  0.41040000  0.92917000  0.70352000  1.0
  O  O167  1  0.77437000  0.41046000  0.70352000  1.0
  O  O168  1  0.29303000  0.77440000  0.70351000  1.0
  O  O169  1  0.92914000  0.29310000  0.70350000  1.0
  O  O170  1  0.70694000  0.07085000  0.29648000  1.0
  O  O171  1  0.07089000  0.58953000  0.29649000  1.0
  O  O172  1  0.58960000  0.22564000  0.29650000  1.0
  O  O173  1  0.22566000  0.70689000  0.29649000  1.0
