# generated using pymatgen
data_ZnH12C19(NO2)2
_symmetry_space_group_name_H-M   'P 1'
_cell_length_a   10.86610000
_cell_length_b   12.43190000
_cell_length_c   13.52290000
_cell_angle_alpha   76.04670000
_cell_angle_beta   86.94920000
_cell_angle_gamma   71.53920000
_symmetry_Int_Tables_number   1
_chemical_formula_structural   ZnH12C19(NO2)2
_chemical_formula_sum   'Zn2 H24 C38 N4 O8'
_cell_volume   1681.09389162
_cell_formula_units_Z   2
loop_
 _symmetry_equiv_pos_site_id
 _symmetry_equiv_pos_as_xyz
  1  'x, y, z'
loop_
 _atom_site_type_symbol
 _atom_site_label
 _atom_site_symmetry_multiplicity
 _atom_site_fract_x
 _atom_site_fract_y
 _atom_site_fract_z
 _atom_site_occupancy
  Zn  Zn0  1  0.45930000  0.61790000  0.50376000  1.0
  Zn  Zn1  1  0.53871000  0.38247000  0.49643000  1.0
  H  H2  1  0.10407000  0.48396000  0.33451000  1.0
  H  H3  1  0.87001000  0.66004000  0.35926000  1.0
  H  H4  1  0.63085000  0.94550000  0.35621000  1.0
  H  H5  1  0.73353000  0.09703000  0.27592000  1.0
  H  H6  1  0.41562000  0.24385000  0.61215000  1.0
  H  H7  1  0.98910000  0.69163000  0.52897000  1.0
  H  H8  1  0.89166000  0.52094000  0.65895000  1.0
  H  H9  1  0.12576000  0.34582000  0.63417000  1.0
  H  H10  1  0.00642000  0.31330000  0.46571000  1.0
  H  H11  1  0.44177000  0.24393000  0.81720000  1.0
  H  H12  1  0.39393000  0.21114000  0.00099000  1.0
  H  H13  1  0.50106000  0.56633000  0.82091000  1.0
  H  H14  1  0.49626000  0.68466000  0.89424000  1.0
  H  H15  1  0.55513000  0.88292000  0.02769000  1.0
  H  H16  1  0.55621000  0.84996000  0.91410000  1.0
  H  H17  1  0.31624000  0.26297000  0.24493000  1.0
  H  H18  1  0.29363000  0.23694000  0.13263000  1.0
  H  H19  1  0.50109000  0.76739000  0.18489000  1.0
  H  H20  1  0.39208000  0.41366000  0.26146000  1.0
  H  H21  1  0.29437000  0.73304000  0.65203000  1.0
  H  H22  1  0.30043000  0.10503000  0.69662000  1.0
  H  H23  1  0.25617000  0.91606000  0.71440000  1.0
  H  H24  1  0.54447000  0.82451000  0.43238000  1.0
  H  H25  1  0.69082000  0.27425000  0.34677000  1.0
  C  C26  1  0.47714000  0.57448000  0.30266000  1.0
  C  C27  1  0.46222000  0.55716000  0.02459000  1.0
  C  C28  1  0.44885000  0.52882000  0.13258000  1.0
  C  C29  1  0.73987000  0.49380000  0.49250000  1.0
  C  C30  1  0.45176000  0.47437000  0.96806000  1.0
  C  C31  1  0.41909000  0.37220000  0.01885000  1.0
  C  C32  1  0.39153000  0.35464000  0.12605000  1.0
  C  C33  1  0.40999000  0.42936000  0.17991000  1.0
  C  C34  1  0.47617000  0.49004000  0.86323000  1.0
  C  C35  1  0.44267000  0.30774000  0.85987000  1.0
  C  C36  1  0.46839000  0.60612000  0.18855000  1.0
  C  C37  1  0.06739000  0.41511000  0.57279000  1.0
  C  C38  1  0.31965000  0.89977000  0.65079000  1.0
  C  C39  1  0.64898000  0.20520000  0.38073000  1.0
  C  C40  1  0.67157000  0.10632000  0.34132000  1.0
  C  C41  1  0.49916000  0.43290000  0.69770000  1.0
  C  C42  1  0.61354000  0.02288000  0.38601000  1.0
  C  C43  1  0.53174000  0.03879000  0.46942000  1.0
  C  C44  1  0.51269000  0.14200000  0.50457000  1.0
  C  C45  1  0.46568000  0.95687000  0.52028000  1.0
  C  C46  1  0.38231000  0.98160000  0.60253000  1.0
  C  C47  1  0.36524000  0.08702000  0.63398000  1.0
  C  C48  1  0.00386000  0.39731000  0.47922000  1.0
  C  C49  1  0.42809000  0.16414000  0.58732000  1.0
  C  C50  1  0.48002000  0.85154000  0.49261000  1.0
  C  C51  1  0.33953000  0.79945000  0.61736000  1.0
  C  C52  1  0.25548000  0.51131000  0.50203000  1.0
  C  C53  1  0.92805000  0.59046000  0.42056000  1.0
  C  C54  1  0.05519000  0.49190000  0.40654000  1.0
  C  C55  1  0.11907000  0.51085000  0.50001000  1.0
  C  C56  1  0.99164000  0.60813000  0.51438000  1.0
  C  C57  1  0.94048000  0.51343000  0.58686000  1.0
  C  C58  1  0.87621000  0.49544000  0.49219000  1.0
  C  C59  1  0.41550000  0.29070000  0.96246000  1.0
  C  C60  1  0.47266000  0.40917000  0.80912000  1.0
  C  C61  1  0.48933000  0.70990000  0.13899000  1.0
  C  C62  1  0.49846000  0.73981000  0.03202000  1.0
  C  C63  1  0.48684000  0.66210000  0.97677000  1.0
  N  N64  1  0.41871000  0.77659000  0.53881000  1.0
  N  N65  1  0.57305000  0.22221000  0.46000000  1.0
  N  N66  1  0.51473000  0.84712000  0.98334000  1.0
  N  N67  1  0.35343000  0.25757000  0.17506000  1.0
  O  O68  1  0.42708000  0.65542000  0.34918000  1.0
  O  O69  1  0.53873000  0.46866000  0.34431000  1.0
  O  O70  1  0.65312000  0.59366000  0.47735000  1.0
  O  O71  1  0.72025000  0.39503000  0.50995000  1.0
  O  O72  1  0.50796000  0.53321000  0.65555000  1.0
  O  O73  1  0.50966000  0.35177000  0.65184000  1.0
  O  O74  1  0.27943000  0.59386000  0.52958000  1.0
  O  O75  1  0.33948000  0.42573000  0.47533000  1.0
