# generated using pymatgen
data_CdH14C14N2(ClO2)2
_symmetry_space_group_name_H-M   'P 1'
_cell_length_a   5.52286000
_cell_length_b   8.33057000
_cell_length_c   17.30490000
_cell_angle_alpha   89.98260000
_cell_angle_beta   83.94190000
_cell_angle_gamma   82.19970000
_symmetry_Int_Tables_number   1
_chemical_formula_structural   CdH14C14N2(ClO2)2
_chemical_formula_sum   'Cd2 H28 C28 N4 Cl4 O8'
_cell_volume   784.32223778
_cell_formula_units_Z   2
loop_
 _symmetry_equiv_pos_site_id
 _symmetry_equiv_pos_as_xyz
  1  'x, y, z'
loop_
 _atom_site_type_symbol
 _atom_site_label
 _atom_site_symmetry_multiplicity
 _atom_site_fract_x
 _atom_site_fract_y
 _atom_site_fract_z
 _atom_site_occupancy
  Cd  Cd0  1  0.20921000  0.12343000  0.04736000  1.0
  Cd  Cd1  1  0.79078000  0.87657000  0.95264000  1.0
  H  H2  1  0.33170000  0.66430000  0.49085000  1.0
  H  H3  1  0.66827000  0.33571000  0.50915000  1.0
  H  H4  1  0.87610000  0.36418000  0.12416000  1.0
  H  H5  1  0.12390000  0.63581000  0.87585000  1.0
  H  H6  1  0.07460000  0.45440000  0.06898000  1.0
  H  H7  1  0.92539000  0.54559000  0.93102000  1.0
  H  H8  1  0.44819000  0.53364000  0.11346000  1.0
  H  H9  1  0.55180000  0.46636000  0.88654000  1.0
  H  H10  1  0.60281000  0.63939000  0.23047000  1.0
  H  H11  1  0.39720000  0.36061000  0.76953000  1.0
  H  H12  1  0.02723000  0.45297000  0.37647000  1.0
  H  H13  1  0.97278000  0.54705000  0.62353000  1.0
  H  H14  1  0.87440000  0.34558000  0.26008000  1.0
  H  H15  1  0.12559000  0.65443000  0.73992000  1.0
  H  H16  1  0.32539000  0.22087000  0.55152000  1.0
  H  H17  1  0.67460000  0.77913000  0.44848000  1.0
  H  H18  1  0.09430000  0.86818000  0.14759000  1.0
  H  H19  1  0.90571000  0.13181000  0.85241000  1.0
  H  H20  1  0.39600000  0.86144000  0.12322000  1.0
  H  H21  1  0.60401000  0.13856000  0.87678000  1.0
  H  H22  1  0.95987000  0.90025000  0.28578000  1.0
  H  H23  1  0.04014000  0.09976000  0.71422000  1.0
  H  H24  1  0.03123000  0.00863000  0.41376000  1.0
  H  H25  1  0.96877000  0.99138000  0.58623000  1.0
  H  H26  1  0.68813000  0.17817000  0.30958000  1.0
  H  H27  1  0.31187000  0.82183000  0.69042000  1.0
  H  H28  1  0.61481000  0.07392000  0.17984000  1.0
  H  H29  1  0.38520000  0.92608000  0.82016000  1.0
  C  C30  1  0.15350000  0.43049000  0.17997000  1.0
  C  C31  1  0.84651000  0.56951000  0.82003000  1.0
  C  C32  1  0.36049000  0.51196000  0.17133000  1.0
  C  C33  1  0.63952000  0.48804000  0.82868000  1.0
  C  C34  1  0.44665000  0.57165000  0.23675000  1.0
  C  C35  1  0.55336000  0.42835000  0.76325000  1.0
  C  C36  1  0.32850000  0.55019000  0.31111000  1.0
  C  C37  1  0.67150000  0.44980000  0.68890000  1.0
  C  C38  1  0.12282000  0.46706000  0.31913000  1.0
  C  C39  1  0.87717000  0.53294000  0.68087000  1.0
  C  C40  1  0.03687000  0.40722000  0.25393000  1.0
  C  C41  1  0.96314000  0.59278000  0.74607000  1.0
  C  C42  1  0.41315000  0.62152000  0.38005000  1.0
  C  C43  1  0.58687000  0.37849000  0.61995000  1.0
  C  C44  1  0.27914000  0.98527000  0.22425000  1.0
  C  C45  1  0.72086000  0.01473000  0.77575000  1.0
  C  C46  1  0.11713000  0.96461000  0.29039000  1.0
  C  C47  1  0.88287000  0.03539000  0.70961000  1.0
  C  C48  1  0.15868000  0.02392000  0.36265000  1.0
  C  C49  1  0.84132000  0.97609000  0.63735000  1.0
  C  C50  1  0.36428000  0.10295000  0.36917000  1.0
  C  C51  1  0.63573000  0.89706000  0.63083000  1.0
  C  C52  1  0.52844000  0.11840000  0.30292000  1.0
  C  C53  1  0.47156000  0.88161000  0.69708000  1.0
  C  C54  1  0.48827000  0.06012000  0.23136000  1.0
  C  C55  1  0.51172000  0.93988000  0.76864000  1.0
  C  C56  1  0.42116000  0.17600000  0.44180000  1.0
  C  C57  1  0.57882000  0.82400000  0.55820000  1.0
  N  N58  1  0.05949000  0.37341000  0.11323000  1.0
  N  N59  1  0.94050000  0.62658000  0.88677000  1.0
  N  N60  1  0.24005000  0.93287000  0.14854000  1.0
  N  N61  1  0.75996000  0.06713000  0.85146000  1.0
  Cl  Cl62  1  0.68969000  0.15799000  0.03882000  1.0
  Cl  Cl63  1  0.31031000  0.84200000  0.96117000  1.0
  Cl  Cl64  1  0.80238000  0.73849000  0.08365000  1.0
  Cl  Cl65  1  0.19764000  0.26150000  0.91635000  1.0
  O  O66  1  0.27312000  0.60387000  0.44525000  1.0
  O  O67  1  0.72687000  0.39614000  0.55475000  1.0
  O  O68  1  0.59887000  0.69362000  0.37578000  1.0
  O  O69  1  0.40113000  0.30638000  0.62422000  1.0
  O  O70  1  0.27122000  0.16021000  0.50527000  1.0
  O  O71  1  0.72876000  0.83979000  0.49473000  1.0
  O  O72  1  0.60442000  0.24977000  0.44062000  1.0
  O  O73  1  0.39556000  0.75024000  0.55938000  1.0
