# generated using pymatgen
data_CdP2H18C20(NO3)2
_symmetry_space_group_name_H-M   'P 1'
_cell_length_a   7.64052000
_cell_length_b   12.24700000
_cell_length_c   12.37541829
_cell_angle_alpha   60.34203817
_cell_angle_beta   81.91357773
_cell_angle_gamma   90.00020000
_symmetry_Int_Tables_number   1
_chemical_formula_structural   CdP2H18C20(NO3)2
_chemical_formula_sum   'Cd2 P4 H36 C40 N4 O12'
_cell_volume   993.03331068
_cell_formula_units_Z   2
loop_
 _symmetry_equiv_pos_site_id
 _symmetry_equiv_pos_as_xyz
  1  'x, y, z'
loop_
 _atom_site_type_symbol
 _atom_site_label
 _atom_site_symmetry_multiplicity
 _atom_site_fract_x
 _atom_site_fract_y
 _atom_site_fract_z
 _atom_site_occupancy
  Cd  Cd0  1  0.75000000  0.84335000  1.00000000  1.0
  Cd  Cd1  1  0.25000000  0.15665000  1.00000000  1.0
  P  P2  1  0.56961000  0.98297000  0.18240000  1.0
  P  P3  1  0.93039000  0.16537000  0.81760000  1.0
  P  P4  1  0.43039000  0.01703000  0.81760000  1.0
  P  P5  1  0.06961000  0.83463000  0.18240000  1.0
  H  H6  1  0.87439000  0.01559000  0.13768000  1.0
  H  H7  1  0.62561000  0.15327000  0.86232000  1.0
  H  H8  1  0.12561000  0.98441000  0.86232000  1.0
  H  H9  1  0.37439000  0.84672000  0.13769000  1.0
  H  H10  1  0.49035000  0.63509000  0.26449000  1.0
  H  H11  1  0.00965000  0.89957000  0.73551000  1.0
  H  H12  1  0.50965000  0.36491000  0.73551000  1.0
  H  H13  1  0.99035000  0.10043000  0.26449000  1.0
  H  H14  1  0.38715000  0.40548000  0.38177000  1.0
  H  H15  1  0.11285000  0.78725000  0.61823000  1.0
  H  H16  1  0.61285000  0.59452000  0.61823000  1.0
  H  H17  1  0.88715000  0.21275000  0.38177000  1.0
  H  H18  1  0.48289000  0.27307000  0.28314000  1.0
  H  H19  1  0.01711000  0.55621000  0.71686000  1.0
  H  H20  1  0.51711000  0.72693000  0.71686000  1.0
  H  H21  1  0.98289000  0.44379000  0.28314000  1.0
  H  H22  1  0.64999000  0.26018000  0.10212000  1.0
  H  H23  1  0.85001000  0.36229000  0.89788000  1.0
  H  H24  1  0.35002000  0.73983000  0.89788000  1.0
  H  H25  1  0.14999000  0.63770000  0.10212000  1.0
  H  H26  1  0.40584000  0.81602000  0.37003000  1.0
  H  H27  1  0.09416000  0.18605000  0.62997000  1.0
  H  H28  1  0.59416000  0.18398000  0.62997000  1.0
  H  H29  1  0.90584000  0.81395000  0.37003000  1.0
  H  H30  1  0.63521000  0.80832000  0.37444000  1.0
  H  H31  1  0.86479000  0.18275000  0.62556000  1.0
  H  H32  1  0.36479000  0.19168000  0.62556000  1.0
  H  H33  1  0.13521000  0.81725000  0.37444000  1.0
  H  H34  1  0.25825000  0.00228000  0.38458000  1.0
  H  H35  1  0.24176000  0.38686000  0.61542000  1.0
  H  H36  1  0.74176000  0.99772000  0.61542000  1.0
  H  H37  1  0.75824000  0.61314000  0.38458000  1.0
  H  H38  1  0.76859000  0.88866000  0.49131000  1.0
  H  H39  1  0.73141000  0.37997000  0.50869000  1.0
  H  H40  1  0.23142000  0.11134000  0.50869000  1.0
  H  H41  1  0.26859000  0.62003000  0.49131000  1.0
  C  C42  1  0.53268000  0.57413000  0.22635000  1.0
  C  C43  1  0.96733000  0.80048000  0.77365000  1.0
  C  C44  1  0.46733000  0.42587000  0.77365000  1.0
  C  C45  1  0.03267000  0.19952000  0.22635000  1.0
  C  C46  1  0.47486000  0.44525000  0.29139000  1.0
  C  C47  1  0.02514000  0.73664000  0.70861000  1.0
  C  C48  1  0.52515000  0.55475000  0.70861000  1.0
  C  C49  1  0.97486000  0.26336000  0.29139000  1.0
  C  C50  1  0.52655000  0.37306000  0.23676000  1.0
  C  C51  1  0.97345000  0.60982000  0.76324000  1.0
  C  C52  1  0.47345000  0.62694000  0.76324000  1.0
  C  C53  1  0.02655000  0.39018000  0.23676000  1.0
  C  C54  1  0.63745000  0.42947000  0.11822000  1.0
  C  C55  1  0.86256000  0.54769000  0.88178000  1.0
  C  C56  1  0.36256000  0.57054000  0.88177000  1.0
  C  C57  1  0.13744000  0.45231000  0.11822000  1.0
  C  C58  1  0.69181000  0.56005000  0.06037000  1.0
  C  C59  1  0.80819000  0.62042000  0.93963000  1.0
  C  C60  1  0.30819000  0.43995000  0.93963000  1.0
  C  C61  1  0.19181000  0.37958000  0.06036000  1.0
  C  C62  1  0.69524000  0.35975000  0.05684000  1.0
  C  C63  1  0.80476000  0.41659000  0.94316000  1.0
  C  C64  1  0.30476000  0.64025000  0.94316000  1.0
  C  C65  1  0.19524000  0.58341000  0.05684000  1.0
  C  C66  1  0.52887000  0.87274000  0.35294000  1.0
  C  C67  1  0.97113000  0.22568000  0.64707000  1.0
  C  C68  1  0.47113000  0.12726000  0.64706000  1.0
  C  C69  1  0.02887000  0.77431000  0.35294000  1.0
  C  C70  1  0.51362000  0.93593000  0.43057000  1.0
  C  C71  1  0.98638000  0.36650000  0.56943000  1.0
  C  C72  1  0.48638000  0.06407000  0.56943000  1.0
  C  C73  1  0.01362000  0.63350000  0.43057000  1.0
  C  C74  1  0.36305000  0.99929000  0.43720000  1.0
  C  C75  1  0.13695000  0.43648000  0.56280000  1.0
  C  C76  1  0.63695000  0.00071000  0.56280000  1.0
  C  C77  1  0.86305000  0.56352000  0.43720000  1.0
  C  C78  1  0.65044000  0.93801000  0.49421000  1.0
  C  C79  1  0.84956000  0.43222000  0.50579000  1.0
  C  C80  1  0.34956000  0.06199000  0.50579000  1.0
  C  C81  1  0.15044000  0.56778000  0.49421000  1.0
  N  N82  1  0.63731000  0.62927000  0.11487000  1.0
  N  N83  1  0.86269000  0.74414000  0.88513000  1.0
  N  N84  1  0.36269000  0.37074000  0.88512000  1.0
  N  N85  1  0.13730000  0.25586000  0.11487000  1.0
  O  O86  1  0.75834000  0.05278000  0.15170000  1.0
  O  O87  1  0.74166000  0.20448000  0.84830000  1.0
  O  O88  1  0.24166000  0.94722000  0.84830000  1.0
  O  O89  1  0.25834000  0.79552000  0.15170000  1.0
  O  O90  1  0.43350000  0.07897000  0.15149000  1.0
  O  O91  1  0.06650000  0.23046000  0.84851000  1.0
  O  O92  1  0.56650000  0.92103000  0.84851000  1.0
  O  O93  1  0.93349000  0.76954000  0.15149000  1.0
  O  O94  1  0.56306000  0.89861000  0.12322000  1.0
  O  O95  1  0.93694000  0.02183000  0.87678000  1.0
  O  O96  1  0.43694000  0.10139000  0.87678000  1.0
  O  O97  1  0.06306000  0.97817000  0.12322000  1.0
