# generated using pymatgen
data_HgH12C14(SN2)2
_symmetry_space_group_name_H-M   'P 1'
_cell_length_a   5.71404000
_cell_length_b   9.45263000
_cell_length_c   14.85070000
_cell_angle_alpha   94.25410000
_cell_angle_beta   89.99760000
_cell_angle_gamma   89.99970000
_symmetry_Int_Tables_number   1
_chemical_formula_structural   HgH12C14(SN2)2
_chemical_formula_sum   'Hg2 H24 C28 S4 N8'
_cell_volume   799.91653598
_cell_formula_units_Z   2
loop_
 _symmetry_equiv_pos_site_id
 _symmetry_equiv_pos_as_xyz
  1  'x, y, z'
loop_
 _atom_site_type_symbol
 _atom_site_label
 _atom_site_symmetry_multiplicity
 _atom_site_fract_x
 _atom_site_fract_y
 _atom_site_fract_z
 _atom_site_occupancy
  Hg  Hg0  1  0.31257000  0.50000000  0.75001000  1.0
  Hg  Hg1  1  0.68743000  0.49999000  0.25000000  1.0
  H  H2  1  0.38521000  0.83301000  0.77618000  1.0
  H  H3  1  0.38519000  0.16699000  0.72382000  1.0
  H  H4  1  0.61476000  0.16699000  0.22382000  1.0
  H  H5  1  0.61479000  0.83301000  0.27618000  1.0
  H  H6  1  0.64209000  0.02521000  0.84895000  1.0
  H  H7  1  0.64207000  0.97481000  0.65104000  1.0
  H  H8  1  0.35789000  0.97479000  0.15105000  1.0
  H  H9  1  0.35791000  0.02520000  0.34895000  1.0
  H  H10  1  0.07345000  0.69705000  0.94907000  1.0
  H  H11  1  0.07347000  0.30295000  0.55093000  1.0
  H  H12  1  0.92655000  0.30296000  0.05092000  1.0
  H  H13  1  0.92657000  0.69704000  0.44909000  1.0
  H  H14  1  0.79103000  0.51920000  0.87854000  1.0
  H  H15  1  0.79107000  0.48080000  0.62146000  1.0
  H  H16  1  0.20897000  0.48080000  0.12145000  1.0
  H  H17  1  0.20899000  0.51920000  0.37855000  1.0
  H  H18  1  0.01578000  0.08778000  0.91736000  1.0
  H  H19  1  0.01575000  0.91222000  0.58264000  1.0
  H  H20  1  0.98420000  0.91223000  0.08263000  1.0
  H  H21  1  0.98427000  0.08778000  0.41737000  1.0
  H  H22  1  0.21921000  0.95485000  0.94579000  1.0
  H  H23  1  0.21921000  0.04514000  0.55421000  1.0
  H  H24  1  0.78077000  0.04516000  0.05420000  1.0
  H  H25  1  0.78080000  0.95485000  0.44579000  1.0
  C  C26  1  0.53961000  0.80808000  0.81539000  1.0
  C  C27  1  0.53958000  0.19193000  0.68460000  1.0
  C  C28  1  0.46037000  0.19192000  0.18461000  1.0
  C  C29  1  0.46040000  0.80808000  0.31539000  1.0
  C  C30  1  0.68348000  0.91368000  0.85478000  1.0
  C  C31  1  0.68346000  0.08634000  0.64522000  1.0
  C  C32  1  0.31651000  0.08632000  0.14522000  1.0
  C  C33  1  0.31652000  0.91367000  0.35477000  1.0
  C  C34  1  0.88149000  0.87611000  0.90323000  1.0
  C  C35  1  0.88149000  0.12390000  0.59677000  1.0
  C  C36  1  0.11850000  0.12390000  0.09677000  1.0
  C  C37  1  0.11852000  0.87610000  0.40323000  1.0
  C  C38  1  0.92334000  0.73140000  0.91076000  1.0
  C  C39  1  0.92336000  0.26861000  0.58925000  1.0
  C  C40  1  0.07665000  0.26861000  0.08924000  1.0
  C  C41  1  0.07667000  0.73139000  0.41077000  1.0
  C  C42  1  0.76794000  0.63216000  0.87104000  1.0
  C  C43  1  0.76796000  0.36785000  0.62897000  1.0
  C  C44  1  0.23205000  0.36784000  0.12896000  1.0
  C  C45  1  0.23208000  0.63216000  0.37105000  1.0
  C  C46  1  0.03465000  0.98756000  0.94969000  1.0
  C  C47  1  0.03465000  0.01244000  0.55031000  1.0
  C  C48  1  0.96532000  0.01245000  0.05030000  1.0
  C  C49  1  0.96536000  0.98756000  0.44970000  1.0
  C  C50  1  0.41939000  0.69838000  0.59333000  1.0
  C  C51  1  0.41939000  0.30160000  0.90667000  1.0
  C  C52  1  0.58061000  0.30162000  0.40667000  1.0
  C  C53  1  0.58064000  0.69836000  0.09330000  1.0
  S  S54  1  0.16261000  0.66236000  0.63916000  1.0
  S  S55  1  0.16261000  0.33764000  0.86086000  1.0
  S  S56  1  0.83739000  0.33764000  0.36085000  1.0
  S  S57  1  0.83740000  0.66234000  0.13914000  1.0
  N  N58  1  0.58078000  0.66947000  0.82316000  1.0
  N  N59  1  0.58078000  0.33054000  0.67685000  1.0
  N  N60  1  0.41920000  0.33053000  0.17685000  1.0
  N  N61  1  0.41923000  0.66947000  0.32316000  1.0
  N  N62  1  0.59691000  0.72871000  0.55918000  1.0
  N  N63  1  0.59690000  0.27127000  0.94083000  1.0
  N  N64  1  0.40310000  0.27128000  0.44083000  1.0
  N  N65  1  0.40312000  0.72871000  0.05916000  1.0
