# generated using pymatgen
data_CdH12C15(NO)5
_symmetry_space_group_name_H-M   'P 1'
_cell_length_a   9.46219000
_cell_length_b   9.78901000
_cell_length_c   10.12340000
_cell_angle_alpha   97.00150000
_cell_angle_beta   105.53100000
_cell_angle_gamma   107.70100000
_symmetry_Int_Tables_number   1
_chemical_formula_structural   CdH12C15(NO)5
_chemical_formula_sum   'Cd2 H24 C30 N10 O10'
_cell_volume   839.29460500
_cell_formula_units_Z   2
loop_
 _symmetry_equiv_pos_site_id
 _symmetry_equiv_pos_as_xyz
  1  'x, y, z'
loop_
 _atom_site_type_symbol
 _atom_site_label
 _atom_site_symmetry_multiplicity
 _atom_site_fract_x
 _atom_site_fract_y
 _atom_site_fract_z
 _atom_site_occupancy
  Cd  Cd0  1  0.78655000  0.20123000  0.60050000  1.0
  Cd  Cd1  1  0.21345000  0.79877000  0.39949000  1.0
  H  H2  1  0.36997000  0.25856000  0.59201000  1.0
  H  H3  1  0.63004000  0.74145000  0.40799000  1.0
  H  H4  1  0.45788000  0.14238000  0.44074000  1.0
  H  H5  1  0.54214000  0.85762000  0.55926000  1.0
  H  H6  1  0.46169000  0.10644000  0.58631000  1.0
  H  H7  1  0.53832000  0.89356000  0.41368000  1.0
  H  H8  1  0.77393000  0.17530000  0.08668000  1.0
  H  H9  1  0.22608000  0.82469000  0.91331000  1.0
  H  H10  1  0.00034000  0.18934000  0.92085000  1.0
  H  H11  1  0.99967000  0.81067000  0.07914000  1.0
  H  H12  1  0.23329000  0.25155000  0.13275000  1.0
  H  H13  1  0.76670000  0.74844000  0.86725000  1.0
  H  H14  1  0.50171000  0.32817000  0.11821000  1.0
  H  H15  1  0.49830000  0.67182000  0.88182000  1.0
  H  H16  1  0.54810000  0.33760000  0.88732000  1.0
  H  H17  1  0.45190000  0.66239000  0.11269000  1.0
  H  H18  1  0.12948000  0.12529000  0.35707000  1.0
  H  H19  1  0.87053000  0.87472000  0.64294000  1.0
  H  H20  1  0.94086000  0.11062000  0.36796000  1.0
  H  H21  1  0.05913000  0.88940000  0.63207000  1.0
  H  H22  1  0.18434000  0.49312000  0.54646000  1.0
  H  H23  1  0.81567000  0.50690000  0.45355000  1.0
  H  H24  1  0.02924000  0.49275000  0.11711000  1.0
  H  H25  1  0.97077000  0.50723000  0.88289000  1.0
  C  C26  1  0.65990000  0.13041000  0.29732000  1.0
  C  C27  1  0.34011000  0.86957000  0.70266000  1.0
  C  C28  1  0.65335000  0.09861000  0.04848000  1.0
  C  C29  1  0.34664000  0.90139000  0.95152000  1.0
  C  C30  1  0.57327000  0.06311000  0.14425000  1.0
  C  C31  1  0.42670000  0.93687000  0.85575000  1.0
  C  C32  1  0.41767000  0.96386000  0.09512000  1.0
  C  C33  1  0.58231000  0.03613000  0.90486000  1.0
  C  C34  1  0.32658000  0.92091000  0.19317000  1.0
  C  C35  1  0.67340000  0.07910000  0.80683000  1.0
  C  C36  1  0.14346000  0.22657000  0.78307000  1.0
  C  C37  1  0.85655000  0.77344000  0.21694000  1.0
  C  C38  1  0.11786000  0.22101000  0.91278000  1.0
  C  C39  1  0.88215000  0.77899000  0.08723000  1.0
  C  C40  1  0.24953000  0.25763000  0.03089000  1.0
  C  C41  1  0.75046000  0.74237000  0.96910000  1.0
  C  C42  1  0.40263000  0.30072000  0.02240000  1.0
  C  C43  1  0.59735000  0.69927000  0.97759000  1.0
  C  C44  1  0.43022000  0.30693000  0.89467000  1.0
  C  C45  1  0.56977000  0.69306000  0.10533000  1.0
  C  C46  1  0.29806000  0.26846000  0.77598000  1.0
  C  C47  1  0.70195000  0.73154000  0.22402000  1.0
  C  C48  1  0.12583000  0.20913000  0.56171000  1.0
  C  C49  1  0.87417000  0.79089000  0.43829000  1.0
  C  C50  1  0.06483000  0.18114000  0.40550000  1.0
  C  C51  1  0.93516000  0.81885000  0.59449000  1.0
  C  C52  1  0.13528000  0.45777000  0.43290000  1.0
  C  C53  1  0.86472000  0.54223000  0.56708000  1.0
  C  C54  1  0.05531000  0.45495000  0.21399000  1.0
  C  C55  1  0.94469000  0.54504000  0.78600000  1.0
  N  N56  1  0.03834000  0.19162000  0.64679000  1.0
  N  N57  1  0.96165000  0.80838000  0.35320000  1.0
  N  N58  1  0.28158000  0.25789000  0.63478000  1.0
  N  N59  1  0.71844000  0.74213000  0.36524000  1.0
  N  N60  1  0.07867000  0.31867000  0.35757000  1.0
  N  N61  1  0.92132000  0.68131000  0.64242000  1.0
  N  N62  1  0.02696000  0.31446000  0.21775000  1.0
  N  N63  1  0.97303000  0.68553000  0.78226000  1.0
  N  N64  1  0.12202000  0.54688000  0.34393000  1.0
  N  N65  1  0.87799000  0.45313000  0.65607000  1.0
  O  O66  1  0.72635000  0.26713000  0.33836000  1.0
  O  O67  1  0.27364000  0.73285000  0.66162000  1.0
  O  O68  1  0.66790000  0.04119000  0.38202000  1.0
  O  O69  1  0.33210000  0.95881000  0.61798000  1.0
  O  O70  1  0.32971000  0.01884000  0.29108000  1.0
  O  O71  1  0.67030000  0.98117000  0.70893000  1.0
  O  O72  1  0.24992000  0.78455000  0.17606000  1.0
  O  O73  1  0.75007000  0.21546000  0.82394000  1.0
  O  O74  1  0.50783000  0.18842000  0.54318000  1.0
  O  O75  1  0.49219000  0.81157000  0.45681000  1.0
