# generated using pymatgen
data_MoH4C19N(O2F5)2
_symmetry_space_group_name_H-M   'P 1'
_cell_length_a   8.90853000
_cell_length_b   9.84269000
_cell_length_c   11.15650000
_cell_angle_alpha   100.22700000
_cell_angle_beta   94.58910000
_cell_angle_gamma   99.78240000
_symmetry_Int_Tables_number   1
_chemical_formula_structural   MoH4C19N(O2F5)2
_chemical_formula_sum   'Mo2 H8 C38 N2 O8 F20'
_cell_volume   942.56344257
_cell_formula_units_Z   2
loop_
 _symmetry_equiv_pos_site_id
 _symmetry_equiv_pos_as_xyz
  1  'x, y, z'
loop_
 _atom_site_type_symbol
 _atom_site_label
 _atom_site_symmetry_multiplicity
 _atom_site_fract_x
 _atom_site_fract_y
 _atom_site_fract_z
 _atom_site_occupancy
  Mo  Mo0  1  0.94467000  0.58375000  0.47976000  1.0
  Mo  Mo1  1  0.05534000  0.41624000  0.52024000  1.0
  H  H2  1  0.57379000  0.60648000  0.39094000  1.0
  H  H3  1  0.42620000  0.39353000  0.60906000  1.0
  H  H4  1  0.92353000  0.92264000  0.57878000  1.0
  H  H5  1  0.07647000  0.07736000  0.42122000  1.0
  H  H6  1  0.75554000  0.09834000  0.59452000  1.0
  H  H7  1  0.24446000  0.90167000  0.40549000  1.0
  H  H8  1  0.38787000  0.76672000  0.39982000  1.0
  H  H9  1  0.61212000  0.23329000  0.60018000  1.0
  C  C10  1  0.76446000  0.30483000  0.37010000  1.0
  C  C11  1  0.23554000  0.69517000  0.62991000  1.0
  C  C12  1  0.89492000  0.51684000  0.72339000  1.0
  C  C13  1  0.10507000  0.48316000  0.27660000  1.0
  C  C14  1  0.64717000  0.19840000  0.28720000  1.0
  C  C15  1  0.35283000  0.80160000  0.71281000  1.0
  C  C16  1  0.50003000  0.22399000  0.25402000  1.0
  C  C17  1  0.49997000  0.77601000  0.74599000  1.0
  C  C18  1  0.38782000  0.12166000  0.17911000  1.0
  C  C19  1  0.61219000  0.87834000  0.82089000  1.0
  C  C20  1  0.42145000  0.99081000  0.13143000  1.0
  C  C21  1  0.57855000  0.00919000  0.86857000  1.0
  C  C22  1  0.56730000  0.96352000  0.15933000  1.0
  C  C23  1  0.43270000  0.03648000  0.84067000  1.0
  C  C24  1  0.67738000  0.06527000  0.23696000  1.0
  C  C25  1  0.32262000  0.93473000  0.76305000  1.0
  C  C26  1  0.85976000  0.54485000  0.85345000  1.0
  C  C27  1  0.14024000  0.45514000  0.14655000  1.0
  C  C28  1  0.94130000  0.66340000  0.93530000  1.0
  C  C29  1  0.05870000  0.33659000  0.06470000  1.0
  C  C30  1  0.90854000  0.69657000  0.05590000  1.0
  C  C31  1  0.09145000  0.30343000  0.94410000  1.0
  C  C32  1  0.79004000  0.60942000  0.09566000  1.0
  C  C33  1  0.20996000  0.39058000  0.90434000  1.0
  C  C34  1  0.70891000  0.48881000  0.01635000  1.0
  C  C35  1  0.29109000  0.51118000  0.98365000  1.0
  C  C36  1  0.74453000  0.45805000  0.89638000  1.0
  C  C37  1  0.25547000  0.54195000  0.10361000  1.0
  C  C38  1  0.60917000  0.71679000  0.43519000  1.0
  C  C39  1  0.39083000  0.28323000  0.56482000  1.0
  C  C40  1  0.80370000  0.89260000  0.53911000  1.0
  C  C41  1  0.19629000  0.10741000  0.46089000  1.0
  C  C42  1  0.70774000  0.99093000  0.54802000  1.0
  C  C43  1  0.29226000  0.00907000  0.45198000  1.0
  C  C44  1  0.55361000  0.94987000  0.49701000  1.0
  C  C45  1  0.44638000  0.05014000  0.50300000  1.0
  C  C46  1  0.50557000  0.80795000  0.44029000  1.0
  C  C47  1  0.49443000  0.19206000  0.55971000  1.0
  N  N48  1  0.75667000  0.75756000  0.48316000  1.0
  N  N49  1  0.24333000  0.24244000  0.51684000  1.0
  O  O50  1  0.75710000  0.43593000  0.38275000  1.0
  O  O51  1  0.24290000  0.56407000  0.61726000  1.0
  O  O52  1  0.87464000  0.26321000  0.42728000  1.0
  O  O53  1  0.12537000  0.73679000  0.57272000  1.0
  O  O54  1  0.85669000  0.59699000  0.65319000  1.0
  O  O55  1  0.14331000  0.40300000  0.34680000  1.0
  O  O56  1  0.96771000  0.41699000  0.68979000  1.0
  O  O57  1  0.03229000  0.58300000  0.31021000  1.0
  F  F58  1  0.46027000  0.34788000  0.29736000  1.0
  F  F59  1  0.53972000  0.65211000  0.70265000  1.0
  F  F60  1  0.24648000  0.14701000  0.15233000  1.0
  F  F61  1  0.75353000  0.85299000  0.84767000  1.0
  F  F62  1  0.31440000  0.89305000  0.05683000  1.0
  F  F63  1  0.68561000  0.10695000  0.94316000  1.0
  F  F64  1  0.60263000  0.84002000  0.10823000  1.0
  F  F65  1  0.39738000  0.15998000  0.89178000  1.0
  F  F66  1  0.81590000  0.03143000  0.25837000  1.0
  F  F67  1  0.18409000  0.96856000  0.74164000  1.0
  F  F68  1  0.05492000  0.74910000  0.89695000  1.0
  F  F69  1  0.94508000  0.25088000  0.10304000  1.0
  F  F70  1  0.98786000  0.81182000  0.13294000  1.0
  F  F71  1  0.01213000  0.18818000  0.86705000  1.0
  F  F72  1  0.75122000  0.64263000  0.20921000  1.0
  F  F73  1  0.24878000  0.35737000  0.79078000  1.0
  F  F74  1  0.59439000  0.40578000  0.05585000  1.0
  F  F75  1  0.40561000  0.59422000  0.94415000  1.0
  F  F76  1  0.66119000  0.34363000  0.81895000  1.0
  F  F77  1  0.33881000  0.65636000  0.18105000  1.0
