# generated using pymatgen
data_CoH14C15(NO2)2
_symmetry_space_group_name_H-M   'P 1'
_cell_length_a   8.61405000
_cell_length_b   8.75078000
_cell_length_c   9.87806000
_cell_angle_alpha   95.00260000
_cell_angle_beta   104.80600000
_cell_angle_gamma   102.84000000
_symmetry_Int_Tables_number   1
_chemical_formula_structural   CoH14C15(NO2)2
_chemical_formula_sum   'Co2 H28 C30 N4 O8'
_cell_volume   693.64305003
_cell_formula_units_Z   2
loop_
 _symmetry_equiv_pos_site_id
 _symmetry_equiv_pos_as_xyz
  1  'x, y, z'
loop_
 _atom_site_type_symbol
 _atom_site_label
 _atom_site_symmetry_multiplicity
 _atom_site_fract_x
 _atom_site_fract_y
 _atom_site_fract_z
 _atom_site_occupancy
  Co  Co0  1  0.98490000  0.65811000  0.15022000  1.0
  Co  Co1  1  0.01510000  0.34189000  0.84978000  1.0
  H  H2  1  0.03995000  0.45682000  0.38172000  1.0
  H  H3  1  0.96004000  0.54319000  0.61828000  1.0
  H  H4  1  0.25311000  0.44826000  0.59939000  1.0
  H  H5  1  0.74689000  0.55175000  0.40061000  1.0
  H  H6  1  0.56445000  0.86621000  0.50858000  1.0
  H  H7  1  0.43555000  0.13379000  0.49141000  1.0
  H  H8  1  0.33410000  0.85399000  0.29374000  1.0
  H  H9  1  0.66591000  0.14601000  0.70626000  1.0
  H  H10  1  0.64394000  0.45864000  0.98676000  1.0
  H  H11  1  0.35605000  0.54135000  0.01323000  1.0
  H  H12  1  0.42773000  0.44383000  0.76643000  1.0
  H  H13  1  0.57226000  0.55617000  0.23357000  1.0
  H  H14  1  0.73316000  0.88638000  0.70571000  1.0
  H  H15  1  0.26684000  0.11362000  0.29429000  1.0
  H  H16  1  0.93302000  0.87908000  0.92653000  1.0
  H  H17  1  0.06698000  0.12091000  0.07347000  1.0
  H  H18  1  0.36801000  0.85689000  0.87717000  1.0
  H  H19  1  0.63199000  0.14310000  0.12283000  1.0
  H  H20  1  0.23311000  0.95871000  0.93079000  1.0
  H  H21  1  0.76689000  0.04128000  0.06921000  1.0
  H  H22  1  0.17717000  0.76208000  0.64109000  1.0
  H  H23  1  0.82283000  0.23792000  0.35891000  1.0
  H  H24  1  0.01290000  0.81813000  0.69103000  1.0
  H  H25  1  0.98710000  0.18187000  0.30897000  1.0
  H  H26  1  0.32996000  0.06143000  0.68979000  1.0
  H  H27  1  0.67005000  0.93857000  0.31021000  1.0
  H  H28  1  0.14971000  0.00281000  0.54494000  1.0
  H  H29  1  0.85029000  0.99719000  0.45506000  1.0
  C  C30  1  0.15830000  0.54540000  0.41461000  1.0
  C  C31  1  0.84170000  0.45460000  0.58539000  1.0
  C  C32  1  0.28007000  0.54143000  0.53620000  1.0
  C  C33  1  0.71993000  0.45857000  0.46380000  1.0
  C  C34  1  0.43083000  0.65909000  0.57721000  1.0
  C  C35  1  0.56917000  0.34091000  0.42279000  1.0
  C  C36  1  0.45016000  0.77295000  0.48662000  1.0
  C  C37  1  0.54984000  0.22705000  0.51338000  1.0
  C  C38  1  0.32206000  0.76797000  0.36630000  1.0
  C  C39  1  0.67794000  0.23203000  0.63370000  1.0
  C  C40  1  0.65940000  0.54997000  0.92003000  1.0
  C  C41  1  0.34060000  0.45002000  0.07997000  1.0
  C  C42  1  0.53780000  0.54315000  0.79515000  1.0
  C  C43  1  0.46219000  0.45685000  0.20485000  1.0
  C  C44  1  0.55864000  0.66303000  0.71045000  1.0
  C  C45  1  0.44136000  0.33698000  0.28955000  1.0
  C  C46  1  0.70436000  0.78642000  0.76132000  1.0
  C  C47  1  0.29564000  0.21358000  0.23868000  1.0
  C  C48  1  0.82002000  0.78356000  0.88757000  1.0
  C  C49  1  0.17998000  0.21644000  0.11243000  1.0
  C  C50  1  0.16217000  0.70893000  0.92442000  1.0
  C  C51  1  0.83783000  0.29107000  0.07558000  1.0
  C  C52  1  0.23581000  0.85276000  0.86386000  1.0
  C  C53  1  0.76419000  0.14723000  0.13614000  1.0
  C  C54  1  0.14783000  0.85182000  0.70781000  1.0
  C  C55  1  0.85217000  0.14818000  0.29219000  1.0
  C  C56  1  0.19449000  0.01345000  0.66129000  1.0
  C  C57  1  0.80551000  0.98656000  0.33871000  1.0
  C  C58  1  0.12220000  0.13623000  0.72404000  1.0
  C  C59  1  0.87780000  0.86377000  0.27596000  1.0
  N  N60  1  0.17611000  0.65700000  0.33015000  1.0
  N  N61  1  0.82389000  0.34301000  0.66985000  1.0
  N  N62  1  0.80098000  0.66627000  0.96657000  1.0
  N  N63  1  0.19901000  0.33373000  0.03343000  1.0
  O  O64  1  0.16075000  0.73155000  0.05360000  1.0
  O  O65  1  0.83925000  0.26845000  0.94640000  1.0
  O  O66  1  0.10875000  0.57550000  0.84459000  1.0
  O  O67  1  0.89125000  0.42450000  0.15542000  1.0
  O  O68  1  0.19125000  0.28362000  0.73543000  1.0
  O  O69  1  0.80875000  0.71638000  0.26457000  1.0
  O  O70  1  0.99318000  0.09263000  0.76612000  1.0
  O  O71  1  0.00682000  0.90737000  0.23388000  1.0
