# generated using pymatgen
data_Cd3H30C30(NO2)8
_symmetry_space_group_name_H-M   'P 1'
_cell_length_a   10.64980000
_cell_length_b   11.88270000
_cell_length_c   17.10620000
_cell_angle_alpha   89.99960000
_cell_angle_beta   89.99980000
_cell_angle_gamma   76.97600000
_symmetry_Int_Tables_number   1
_chemical_formula_structural   Cd3H30C30(NO2)8
_chemical_formula_sum   'Cd6 H60 C60 N16 O32'
_cell_volume   2109.07500037
_cell_formula_units_Z   2
loop_
 _symmetry_equiv_pos_site_id
 _symmetry_equiv_pos_as_xyz
  1  'x, y, z'
loop_
 _atom_site_type_symbol
 _atom_site_label
 _atom_site_symmetry_multiplicity
 _atom_site_fract_x
 _atom_site_fract_y
 _atom_site_fract_z
 _atom_site_occupancy
  Cd  Cd0  1  0.79026000  0.83439000  0.10004000  1.0
  Cd  Cd1  1  0.70975000  0.66561000  0.60004000  1.0
  Cd  Cd2  1  0.20975000  0.16561000  0.89996000  1.0
  Cd  Cd3  1  0.29025000  0.33439000  0.39996000  1.0
  Cd  Cd4  1  0.00001000  0.99999000  1.00000000  1.0
  Cd  Cd5  1  0.50000000  0.50000000  0.50000000  1.0
  H  H6  1  0.14377000  0.64267000  0.24308000  1.0
  H  H7  1  0.35623000  0.85733000  0.74308000  1.0
  H  H8  1  0.85623000  0.35733000  0.75692000  1.0
  H  H9  1  0.64377000  0.14268000  0.25692000  1.0
  H  H10  1  0.53919000  0.66546000  0.26716000  1.0
  H  H11  1  0.96082000  0.83454000  0.76717000  1.0
  H  H12  1  0.46082000  0.33453000  0.73284000  1.0
  H  H13  1  0.03919000  0.16546000  0.23284000  1.0
  H  H14  1  0.31636000  0.82704000  0.07194000  1.0
  H  H15  1  0.18364000  0.67296000  0.57193000  1.0
  H  H16  1  0.68365000  0.17295000  0.92807000  1.0
  H  H17  1  0.81636000  0.32704000  0.42806000  1.0
  H  H18  1  0.47982000  0.94083000  0.84338000  1.0
  H  H19  1  0.02018000  0.55917000  0.34338000  1.0
  H  H20  1  0.52018000  0.05916000  0.15662000  1.0
  H  H21  1  0.97982000  0.44083000  0.65662000  1.0
  H  H22  1  0.57362000  0.79923000  0.82368000  1.0
  H  H23  1  0.92639000  0.70077000  0.32367000  1.0
  H  H24  1  0.42639000  0.20076000  0.17632000  1.0
  H  H25  1  0.07362000  0.29923000  0.67632000  1.0
  H  H26  1  0.71812000  0.87930000  0.74724000  1.0
  H  H27  1  0.78188000  0.62071000  0.24724000  1.0
  H  H28  1  0.28188000  0.12070000  0.25275000  1.0
  H  H29  1  0.21812000  0.37929000  0.75275000  1.0
  H  H30  1  0.62457000  0.02130000  0.76783000  1.0
  H  H31  1  0.87542000  0.47870000  0.26783000  1.0
  H  H32  1  0.37542000  0.97870000  0.23217000  1.0
  H  H33  1  0.12457000  0.52130000  0.73217000  1.0
  H  H34  1  0.98882000  0.44180000  0.84176000  1.0
  H  H35  1  0.51117000  0.05820000  0.34176000  1.0
  H  H36  1  0.01118000  0.55820000  0.15824000  1.0
  H  H37  1  0.48882000  0.94181000  0.65824000  1.0
  H  H38  1  0.88639000  0.57282000  0.80539000  1.0
  H  H39  1  0.61360000  0.92719000  0.30539000  1.0
  H  H40  1  0.11361000  0.42719000  0.19461000  1.0
  H  H41  1  0.38638000  0.07282000  0.69462000  1.0
  H  H42  1  0.07068000  0.65077000  0.83502000  1.0
  H  H43  1  0.42932000  0.84924000  0.33503000  1.0
  H  H44  1  0.92932000  0.34924000  0.16497000  1.0
  H  H45  1  0.57067000  0.15077000  0.66498000  1.0
  H  H46  1  0.12685000  0.54362000  0.90853000  1.0
  H  H47  1  0.37315000  0.95638000  0.40853000  1.0
  H  H48  1  0.87315000  0.45638000  0.09147000  1.0
  H  H49  1  0.62684000  0.04363000  0.59148000  1.0
  H  H50  1  0.58697000  0.86860000  0.97284000  1.0
  H  H51  1  0.91303000  0.63141000  0.47283000  1.0
  H  H52  1  0.41303000  0.13140000  0.02716000  1.0
  H  H53  1  0.08697000  0.36860000  0.52716000  1.0
  H  H54  1  0.86023000  0.96346000  0.83926000  1.0
  H  H55  1  0.63977000  0.53654000  0.33926000  1.0
  H  H56  1  0.13977000  0.03654000  0.16073000  1.0
  H  H57  1  0.36023000  0.46346000  0.66073000  1.0
  H  H58  1  0.77613000  0.51407000  0.92436000  1.0
  H  H59  1  0.72387000  0.98594000  0.42436000  1.0
  H  H60  1  0.22388000  0.48593000  0.07564000  1.0
  H  H61  1  0.27613000  0.01407000  0.57564000  1.0
  H  H62  1  0.00898000  0.72957000  0.97630000  1.0
  H  H63  1  0.49103000  0.77044000  0.47631000  1.0
  H  H64  1  0.99103000  0.27044000  0.02369000  1.0
  H  H65  1  0.50897000  0.22957000  0.52370000  1.0
  C  C66  1  0.21593000  0.74003000  0.15387000  1.0
  C  C67  1  0.28407000  0.75997000  0.65387000  1.0
  C  C68  1  0.78407000  0.25996000  0.84614000  1.0
  C  C69  1  0.71593000  0.24003000  0.34613000  1.0
  C  C70  1  0.22693000  0.67194000  0.22136000  1.0
  C  C71  1  0.27307000  0.82806000  0.72136000  1.0
  C  C72  1  0.77307000  0.32806000  0.77864000  1.0
  C  C73  1  0.72693000  0.17194000  0.27864000  1.0
  C  C74  1  0.34426000  0.64104000  0.26134000  1.0
  C  C75  1  0.15574000  0.85896000  0.76134000  1.0
  C  C76  1  0.65574000  0.35896000  0.73866000  1.0
  C  C77  1  0.84426000  0.14104000  0.23866000  1.0
  C  C78  1  0.44878000  0.68368000  0.23514000  1.0
  C  C79  1  0.05122000  0.81633000  0.73514000  1.0
  C  C80  1  0.55122000  0.31632000  0.76486000  1.0
  C  C81  1  0.94878000  0.18367000  0.26486000  1.0
  C  C82  1  0.43927000  0.75083000  0.16730000  1.0
  C  C83  1  0.06072000  0.74918000  0.66730000  1.0
  C  C84  1  0.56073000  0.24917000  0.83270000  1.0
  C  C85  1  0.93928000  0.25082000  0.33270000  1.0
  C  C86  1  0.32348000  0.77670000  0.12552000  1.0
  C  C87  1  0.17651000  0.72330000  0.62552000  1.0
  C  C88  1  0.67652000  0.22329000  0.87448000  1.0
  C  C89  1  0.82348000  0.27670000  0.37448000  1.0
  C  C90  1  0.08863000  0.77644000  0.11327000  1.0
  C  C91  1  0.41137000  0.72355000  0.61326000  1.0
  C  C92  1  0.91138000  0.22355000  0.88674000  1.0
  C  C93  1  0.58863000  0.27644000  0.38673000  1.0
  C  C94  1  0.35710000  0.56188000  0.33080000  1.0
  C  C95  1  0.14292000  0.93812000  0.83080000  1.0
  C  C96  1  0.64292000  0.43812000  0.66921000  1.0
  C  C97  1  0.85709000  0.06188000  0.16920000  1.0
  C  C98  1  0.55356000  0.79444000  0.14048000  1.0
  C  C99  1  0.94643000  0.70558000  0.64048000  1.0
  C  C100  1  0.44644000  0.20556000  0.85952000  1.0
  C  C101  1  0.05356000  0.29442000  0.35952000  1.0
  C  C102  1  0.74048000  0.92347000  0.92351000  1.0
  C  C103  1  0.75951000  0.57654000  0.42351000  1.0
  C  C104  1  0.25952000  0.07653000  0.07649000  1.0
  C  C105  1  0.24048000  0.42347000  0.57649000  1.0
  C  C106  1  0.57782000  0.88621000  0.84393000  1.0
  C  C107  1  0.92218000  0.61380000  0.34393000  1.0
  C  C108  1  0.42218000  0.11379000  0.15607000  1.0
  C  C109  1  0.07782000  0.38620000  0.65607000  1.0
  C  C110  1  0.67294000  0.93821000  0.79383000  1.0
  C  C111  1  0.82705000  0.56179000  0.29383000  1.0
  C  C112  1  0.32705000  0.06179000  0.20617000  1.0
  C  C113  1  0.17294000  0.43821000  0.70616000  1.0
  C  C114  1  0.87089000  0.63148000  0.97058000  1.0
  C  C115  1  0.62912000  0.86852000  0.47058000  1.0
  C  C116  1  0.12912000  0.36852000  0.02942000  1.0
  C  C117  1  0.37089000  0.13148000  0.52942000  1.0
  C  C118  1  0.94275000  0.53151000  0.85593000  1.0
  C  C119  1  0.55725000  0.96850000  0.35593000  1.0
  C  C120  1  0.05726000  0.46850000  0.14407000  1.0
  C  C121  1  0.44274000  0.03151000  0.64407000  1.0
  C  C122  1  0.04098000  0.60098000  0.88276000  1.0
  C  C123  1  0.45902000  0.89902000  0.38276000  1.0
  C  C124  1  0.95902000  0.39902000  0.11724000  1.0
  C  C125  1  0.54097000  0.10099000  0.61725000  1.0
  N  N126  1  0.63327000  0.88202000  0.92234000  1.0
  N  N127  1  0.86673000  0.61799000  0.42234000  1.0
  N  N128  1  0.36673000  0.11798000  0.07766000  1.0
  N  N129  1  0.13327000  0.38202000  0.57766000  1.0
  N  N130  1  0.76843000  0.95602000  0.85119000  1.0
  N  N131  1  0.73157000  0.54398000  0.35119000  1.0
  N  N132  1  0.23157000  0.04398000  0.14881000  1.0
  N  N133  1  0.26843000  0.45602000  0.64881000  1.0
  N  N134  1  0.86194000  0.53745000  0.92591000  1.0
  N  N135  1  0.63805000  0.96256000  0.42591000  1.0
  N  N136  1  0.13806000  0.46255000  0.07408000  1.0
  N  N137  1  0.36194000  0.03745000  0.57409000  1.0
  N  N138  1  0.96756000  0.67693000  0.94198000  1.0
  N  N139  1  0.53244000  0.82307000  0.44198000  1.0
  N  N140  1  0.03244000  0.32307000  0.05802000  1.0
  N  N141  1  0.46756000  0.17694000  0.55802000  1.0
  O  O142  1  0.08829000  0.81525000  0.04333000  1.0
  O  O143  1  0.41170000  0.68474000  0.54332000  1.0
  O  O144  1  0.91171000  0.18474000  0.95668000  1.0
  O  O145  1  0.58829000  0.31525000  0.45667000  1.0
  O  O146  1  0.98911000  0.76568000  0.15107000  1.0
  O  O147  1  0.51089000  0.73431000  0.65106000  1.0
  O  O148  1  0.01090000  0.23431000  0.84894000  1.0
  O  O149  1  0.48911000  0.26568000  0.34894000  1.0
  O  O150  1  0.26598000  0.51150000  0.34282000  1.0
  O  O151  1  0.23404000  0.98849000  0.84282000  1.0
  O  O152  1  0.73404000  0.48849000  0.65718000  1.0
  O  O153  1  0.76597000  0.01151000  0.15717000  1.0
  O  O154  1  0.46023000  0.55013000  0.37167000  1.0
  O  O155  1  0.03977000  0.94987000  0.87166000  1.0
  O  O156  1  0.53978000  0.44988000  0.62834000  1.0
  O  O157  1  0.96023000  0.05013000  0.12834000  1.0
  O  O158  1  0.65411000  0.77241000  0.18428000  1.0
  O  O159  1  0.84588000  0.72760000  0.68429000  1.0
  O  O160  1  0.34589000  0.22759000  0.81571000  1.0
  O  O161  1  0.15412000  0.27240000  0.31572000  1.0
  O  O162  1  0.54716000  0.85120000  0.07725000  1.0
  O  O163  1  0.95283000  0.64881000  0.57725000  1.0
  O  O164  1  0.45284000  0.14880000  0.92275000  1.0
  O  O165  1  0.04716000  0.35119000  0.42275000  1.0
  O  O166  1  0.80731000  0.93253000  0.98446000  1.0
  O  O167  1  0.69268000  0.56748000  0.48447000  1.0
  O  O168  1  0.19269000  0.06747000  0.01553000  1.0
  O  O169  1  0.30731000  0.43253000  0.51553000  1.0
  O  O170  1  0.79989000  0.66605000  0.02853000  1.0
  O  O171  1  0.70011000  0.83395000  0.52853000  1.0
  O  O172  1  0.20011000  0.33395000  0.97147000  1.0
  O  O173  1  0.29989000  0.16605000  0.47148000  1.0
