# generated using pymatgen
data_CoH20(C8O5)2
_symmetry_space_group_name_H-M   'P 1'
_cell_length_a   4.79504000
_cell_length_b   5.59832000
_cell_length_c   15.44890000
_cell_angle_alpha   87.82110000
_cell_angle_beta   83.08790000
_cell_angle_gamma   84.28100000
_symmetry_Int_Tables_number   1
_chemical_formula_structural   CoH20(C8O5)2
_chemical_formula_sum   'Co1 H20 C16 O10'
_cell_volume   409.50729154
_cell_formula_units_Z   1
loop_
 _symmetry_equiv_pos_site_id
 _symmetry_equiv_pos_as_xyz
  1  'x, y, z'
loop_
 _atom_site_type_symbol
 _atom_site_label
 _atom_site_symmetry_multiplicity
 _atom_site_fract_x
 _atom_site_fract_y
 _atom_site_fract_z
 _atom_site_occupancy
  Co  Co0  1  0.00001000  0.49999000  0.00000000  1.0
  H  H1  1  0.07471000  0.80506000  0.30154000  1.0
  H  H2  1  0.92529000  0.19495000  0.69846000  1.0
  H  H3  1  0.34613000  0.94989000  0.23530000  1.0
  H  H4  1  0.65386000  0.05012000  0.76469000  1.0
  H  H5  1  0.42585000  0.91398000  0.37742000  1.0
  H  H6  1  0.57415000  0.08602000  0.62258000  1.0
  H  H7  1  0.70984000  0.86668000  0.49760000  1.0
  H  H8  1  0.29015000  0.13332000  0.50240000  1.0
  H  H9  1  0.06529000  0.17148000  0.40495000  1.0
  H  H10  1  0.93470000  0.82852000  0.59505000  1.0
  H  H11  1  0.77733000  0.21931000  0.28390000  1.0
  H  H12  1  0.22264000  0.78071000  0.71611000  1.0
  H  H13  1  0.47700000  0.56605000  0.88670000  1.0
  H  H14  1  0.52302000  0.43394000  0.11330000  1.0
  H  H15  1  0.23943000  0.79193000  0.87810000  1.0
  H  H16  1  0.76059000  0.20804000  0.12190000  1.0
  H  H17  1  0.74891000  0.86883000  0.06128000  1.0
  H  H18  1  0.25110000  0.13116000  0.93872000  1.0
  H  H19  1  0.55140000  0.79061000  0.98894000  1.0
  H  H20  1  0.44862000  0.20937000  0.01106000  1.0
  C  C21  1  0.08205000  0.76474000  0.16400000  1.0
  C  C22  1  0.91796000  0.23527000  0.83600000  1.0
  C  C23  1  0.23327000  0.78640000  0.24388000  1.0
  C  C24  1  0.76672000  0.21361000  0.75612000  1.0
  C  C25  1  0.57841000  0.56804000  0.32262000  1.0
  C  C26  1  0.42158000  0.43197000  0.67737000  1.0
  C  C27  1  0.56367000  0.74940000  0.38328000  1.0
  C  C28  1  0.43633000  0.25061000  0.61672000  1.0
  C  C29  1  0.72877000  0.72105000  0.45193000  1.0
  C  C30  1  0.27120000  0.27896000  0.54807000  1.0
  C  C31  1  0.91374000  0.51432000  0.46319000  1.0
  C  C32  1  0.08626000  0.48569000  0.53682000  1.0
  C  C33  1  0.92526000  0.33581000  0.40048000  1.0
  C  C34  1  0.07473000  0.66420000  0.59952000  1.0
  C  C35  1  0.76234000  0.36011000  0.33167000  1.0
  C  C36  1  0.23764000  0.63989000  0.66834000  1.0
  O  O37  1  0.31687000  0.66763000  0.91821000  1.0
  O  O38  1  0.68314000  0.33236000  0.08179000  1.0
  O  O39  1  0.74508000  0.81418000  0.00031000  1.0
  O  O40  1  0.25495000  0.18580000  0.99969000  1.0
  O  O41  1  0.18301000  0.60297000  0.10995000  1.0
  O  O42  1  0.81700000  0.39703000  0.89005000  1.0
  O  O43  1  0.86517000  0.91071000  0.15737000  1.0
  O  O44  1  0.13483000  0.08929000  0.84262000  1.0
  O  O45  1  0.42581000  0.57836000  0.25310000  1.0
  O  O46  1  0.57419000  0.42164000  0.74690000  1.0
