# generated using pymatgen
data_Li3H13C14(SO8)2
_symmetry_space_group_name_H-M   'P 1'
_cell_length_a   9.48133000
_cell_length_b   10.71220000
_cell_length_c   11.42260000
_cell_angle_alpha   103.30300000
_cell_angle_beta   106.12900000
_cell_angle_gamma   110.55200000
_symmetry_Int_Tables_number   1
_chemical_formula_structural   Li3H13C14(SO8)2
_chemical_formula_sum   'Li6 H26 C28 S4 O32'
_cell_volume   971.86670728
_cell_formula_units_Z   2
loop_
 _symmetry_equiv_pos_site_id
 _symmetry_equiv_pos_as_xyz
  1  'x, y, z'
loop_
 _atom_site_type_symbol
 _atom_site_label
 _atom_site_symmetry_multiplicity
 _atom_site_fract_x
 _atom_site_fract_y
 _atom_site_fract_z
 _atom_site_occupancy
  Li  Li0  1  0.00873000  0.27532000  0.38878000  1.0
  Li  Li1  1  0.99127000  0.72468000  0.61122000  1.0
  Li  Li2  1  0.38399000  0.36244000  0.38838000  1.0
  Li  Li3  1  0.61601000  0.63756000  0.61162000  1.0
  Li  Li4  1  0.14037000  0.83787000  0.08324000  1.0
  Li  Li5  1  0.85963000  0.16213000  0.91676000  1.0
  H  H6  1  0.07205000  0.47807000  0.29629000  1.0
  H  H7  1  0.92795000  0.52194000  0.70371000  1.0
  H  H8  1  0.88964000  0.41235000  0.28785000  1.0
  H  H9  1  0.11036000  0.58765000  0.71215000  1.0
  H  H10  1  0.14309000  0.76586000  0.86408000  1.0
  H  H11  1  0.85691000  0.23414000  0.13592000  1.0
  H  H12  1  0.27119000  0.93037000  0.92615000  1.0
  H  H13  1  0.72881000  0.06963000  0.07385000  1.0
  H  H14  1  0.61066000  0.31741000  0.53061000  1.0
  H  H15  1  0.38933000  0.68259000  0.46939000  1.0
  H  H16  1  0.29789000  0.78308000  0.67413000  1.0
  H  H17  1  0.70211000  0.21692000  0.32588000  1.0
  H  H18  1  0.76905000  0.68153000  0.86268000  1.0
  H  H19  1  0.23095000  0.31847000  0.13733000  1.0
  H  H20  1  0.03229000  0.62423000  0.14759000  1.0
  H  H21  1  0.96772000  0.37577000  0.85241000  1.0
  H  H22  1  0.21542000  0.10790000  0.84387000  1.0
  H  H23  1  0.78458000  0.89210000  0.15613000  1.0
  H  H24  1  0.54373000  0.03721000  0.76157000  1.0
  H  H25  1  0.45627000  0.96279000  0.23843000  1.0
  H  H26  1  0.07218000  0.86893000  0.44829000  1.0
  H  H27  1  0.92781000  0.13107000  0.55171000  1.0
  H  H28  1  0.64335000  0.33667000  0.03021000  1.0
  H  H29  1  0.35665000  0.66333000  0.96979000  1.0
  H  H30  1  0.19384000  0.24606000  0.72543000  1.0
  H  H31  1  0.80615000  0.75394000  0.27457000  1.0
  C  C32  1  0.26350000  0.05320000  0.44979000  1.0
  C  C33  1  0.73650000  0.94680000  0.55021000  1.0
  C  C34  1  0.42967000  0.15335000  0.51225000  1.0
  C  C35  1  0.57033000  0.84665000  0.48775000  1.0
  C  C36  1  0.53152000  0.14928000  0.62715000  1.0
  C  C37  1  0.46848000  0.85072000  0.37285000  1.0
  C  C38  1  0.46587000  0.04151000  0.67384000  1.0
  C  C39  1  0.53414000  0.95849000  0.32616000  1.0
  C  C40  1  0.30219000  0.94084000  0.60886000  1.0
  C  C41  1  0.69781000  0.05916000  0.39114000  1.0
  C  C42  1  0.20022000  0.94761000  0.49802000  1.0
  C  C43  1  0.79978000  0.05239000  0.50198000  1.0
  C  C44  1  0.70430000  0.26205000  0.69656000  1.0
  C  C45  1  0.29570000  0.73795000  0.30344000  1.0
  C  C46  1  0.40584000  0.43079000  0.75570000  1.0
  C  C47  1  0.59417000  0.56921000  0.24431000  1.0
  C  C48  1  0.57499000  0.51720000  0.82472000  1.0
  C  C49  1  0.42501000  0.48280000  0.17528000  1.0
  C  C50  1  0.65936000  0.48326000  0.92644000  1.0
  C  C51  1  0.34064000  0.51674000  0.07356000  1.0
  C  C52  1  0.57670000  0.36222000  0.95243000  1.0
  C  C53  1  0.42331000  0.63778000  0.04757000  1.0
  C  C54  1  0.40996000  0.27431000  0.87898000  1.0
  C  C55  1  0.59004000  0.72569000  0.12102000  1.0
  C  C56  1  0.32467000  0.31100000  0.78142000  1.0
  C  C57  1  0.67533000  0.68900000  0.21858000  1.0
  C  C58  1  0.83344000  0.57966000  0.00597000  1.0
  C  C59  1  0.16656000  0.42034000  0.99403000  1.0
  S  S60  1  0.13594000  0.05885000  0.30546000  1.0
  S  S61  1  0.86406000  0.94115000  0.69454000  1.0
  S  S62  1  0.29369000  0.47768000  0.63656000  1.0
  S  S63  1  0.70631000  0.52232000  0.36344000  1.0
  O  O64  1  0.19229000  0.02043000  0.20175000  1.0
  O  O65  1  0.80771000  0.97957000  0.79825000  1.0
  O  O66  1  0.98004000  0.38813000  0.28398000  1.0
  O  O67  1  0.01996000  0.61187000  0.71602000  1.0
  O  O68  1  0.96879000  0.96015000  0.28059000  1.0
  O  O69  1  0.03121000  0.03985000  0.71941000  1.0
  O  O70  1  0.21714000  0.84815000  0.94740000  1.0
  O  O71  1  0.78286000  0.15185000  0.05260000  1.0
  O  O72  1  0.15779000  0.20835000  0.33704000  1.0
  O  O73  1  0.84221000  0.79165000  0.66296000  1.0
  O  O74  1  0.49006000  0.25203000  0.46206000  1.0
  O  O75  1  0.50994000  0.74797000  0.53794000  1.0
  O  O76  1  0.75152000  0.36079000  0.65040000  1.0
  O  O77  1  0.24848000  0.63921000  0.34959000  1.0
  O  O78  1  0.79956000  0.25978000  0.79895000  1.0
  O  O79  1  0.20043000  0.74022000  0.20105000  1.0
  O  O80  1  0.23143000  0.83436000  0.65329000  1.0
  O  O81  1  0.76857000  0.16564000  0.34671000  1.0
  O  O82  1  0.30575000  0.61783000  0.70537000  1.0
  O  O83  1  0.69425000  0.38217000  0.29463000  1.0
  O  O84  1  0.12450000  0.36457000  0.57620000  1.0
  O  O85  1  0.87550000  0.63543000  0.42380000  1.0
  O  O86  1  0.37509000  0.48629000  0.54361000  1.0
  O  O87  1  0.62491000  0.51371000  0.45639000  1.0
  O  O88  1  0.65266000  0.62950000  0.79331000  1.0
  O  O89  1  0.34734000  0.37050000  0.20669000  1.0
  O  O90  1  0.90845000  0.54618000  0.09986000  1.0
  O  O91  1  0.09155000  0.45382000  0.90014000  1.0
  O  O92  1  0.90680000  0.69108000  0.98508000  1.0
  O  O93  1  0.09319000  0.30891000  0.01492000  1.0
  O  O94  1  0.33270000  0.15658000  0.90515000  1.0
  O  O95  1  0.66730000  0.84342000  0.09485000  1.0
