# generated using pymatgen
data_ZnMo2H14C6S4(NO4)2
_symmetry_space_group_name_H-M   'P 1'
_cell_length_a   8.62413000
_cell_length_b   9.93303000
_cell_length_c   10.20690000
_cell_angle_alpha   90.00040000
_cell_angle_beta   90.00020000
_cell_angle_gamma   72.01900000
_symmetry_Int_Tables_number   1
_chemical_formula_structural   ZnMo2H14C6S4(NO4)2
_chemical_formula_sum   'Zn2 Mo4 H28 C12 S8 N4 O16'
_cell_volume   831.65651633
_cell_formula_units_Z   2
loop_
 _symmetry_equiv_pos_site_id
 _symmetry_equiv_pos_as_xyz
  1  'x, y, z'
loop_
 _atom_site_type_symbol
 _atom_site_label
 _atom_site_symmetry_multiplicity
 _atom_site_fract_x
 _atom_site_fract_y
 _atom_site_fract_z
 _atom_site_occupancy
  Zn  Zn0  1  0.53672000  0.15704000  0.59360000  1.0
  Zn  Zn1  1  0.46328000  0.84296000  0.09360000  1.0
  Mo  Mo2  1  0.94592000  0.19075000  0.58997000  1.0
  Mo  Mo3  1  0.05408000  0.80925000  0.08997000  1.0
  Mo  Mo4  1  0.11649000  0.38547000  0.53259000  1.0
  Mo  Mo5  1  0.88350000  0.61453000  0.03259000  1.0
  H  H6  1  0.07400000  0.96488000  0.77043000  1.0
  H  H7  1  0.92601000  0.03512000  0.27043000  1.0
  H  H8  1  0.87582000  0.99296000  0.75776000  1.0
  H  H9  1  0.12418000  0.00704000  0.25776000  1.0
  H  H10  1  0.10411000  0.50972000  0.28483000  1.0
  H  H11  1  0.89589000  0.49029000  0.78483000  1.0
  H  H12  1  0.16635000  0.60813000  0.39227000  1.0
  H  H13  1  0.83364000  0.39187000  0.89226000  1.0
  H  H14  1  0.75803000  0.86809000  0.60347000  1.0
  H  H15  1  0.24198000  0.13191000  0.10347000  1.0
  H  H16  1  0.86565000  0.80935000  0.45550000  1.0
  H  H17  1  0.13435000  0.19065000  0.95550000  1.0
  H  H18  1  0.04662000  0.76467000  0.65714000  1.0
  H  H19  1  0.95338000  0.23533000  0.15714000  1.0
  H  H20  1  0.44639000  0.56863000  0.45001000  1.0
  H  H21  1  0.55360000  0.43138000  0.95000000  1.0
  H  H22  1  0.58894000  0.39901000  0.41780000  1.0
  H  H23  1  0.41106000  0.60100000  0.91779000  1.0
  H  H24  1  0.38149000  0.48327000  0.23552000  1.0
  H  H25  1  0.61851000  0.51674000  0.73551000  1.0
  H  H26  1  0.65913000  0.15898000  0.84229000  1.0
  H  H27  1  0.34086000  0.84101000  0.34229000  1.0
  H  H28  1  0.56980000  0.03974000  0.83781000  1.0
  H  H29  1  0.43021000  0.96024000  0.33782000  1.0
  H  H30  1  0.48229000  0.91447000  0.62501000  1.0
  H  H31  1  0.51771000  0.08553000  0.12502000  1.0
  H  H32  1  0.33654000  0.01809000  0.53872000  1.0
  H  H33  1  0.66345000  0.98191000  0.03873000  1.0
  C  C34  1  0.00716000  0.86873000  0.60888000  1.0
  C  C35  1  0.99284000  0.13127000  0.10888000  1.0
  C  C36  1  0.13694000  0.88235000  0.51356000  1.0
  C  C37  1  0.86307000  0.11763000  0.01357000  1.0
  C  C38  1  0.84806000  0.88615000  0.53565000  1.0
  C  C39  1  0.15194000  0.11385000  0.03565000  1.0
  C  C40  1  0.35079000  0.43675000  0.32564000  1.0
  C  C41  1  0.64921000  0.56325000  0.82563000  1.0
  C  C42  1  0.37409000  0.27956000  0.30613000  1.0
  C  C43  1  0.62591000  0.72045000  0.80612000  1.0
  C  C44  1  0.46023000  0.45594000  0.43737000  1.0
  C  C45  1  0.53977000  0.54406000  0.93736000  1.0
  S  S46  1  0.92607000  0.32565000  0.40171000  1.0
  S  S47  1  0.07392000  0.67435000  0.90171000  1.0
  S  S48  1  0.16613000  0.22282000  0.70412000  1.0
  S  S49  1  0.83387000  0.77718000  0.20412000  1.0
  S  S50  1  0.77270000  0.06480000  0.46390000  1.0
  S  S51  1  0.22730000  0.93520000  0.96390000  1.0
  S  S52  1  0.39827000  0.39487000  0.59301000  1.0
  S  S53  1  0.60173000  0.60513000  0.09300000  1.0
  N  N54  1  0.97909000  0.98581000  0.70413000  1.0
  N  N55  1  0.02092000  0.01419000  0.20413000  1.0
  N  N56  1  0.17916000  0.50558000  0.36386000  1.0
  N  N57  1  0.82084000  0.49442000  0.86385000  1.0
  O  O58  1  0.78350000  0.28238000  0.68224000  1.0
  O  O59  1  0.21650000  0.71762000  0.18223000  1.0
  O  O60  1  0.00296000  0.53932000  0.60376000  1.0
  O  O61  1  0.99704000  0.46068000  0.10375000  1.0
  O  O62  1  0.22923000  0.77823000  0.45393000  1.0
  O  O63  1  0.77076000  0.22177000  0.95393000  1.0
  O  O64  1  0.13937000  0.01088000  0.49628000  1.0
  O  O65  1  0.86063000  0.98912000  0.99629000  1.0
  O  O66  1  0.47377000  0.21256000  0.22164000  1.0
  O  O67  1  0.52624000  0.78744000  0.72163000  1.0
  O  O68  1  0.29162000  0.22749000  0.38545000  1.0
  O  O69  1  0.70838000  0.77252000  0.88545000  1.0
  O  O70  1  0.61180000  0.10108000  0.78250000  1.0
  O  O71  1  0.38820000  0.89891000  0.28251000  1.0
  O  O72  1  0.45576000  0.99034000  0.55438000  1.0
  O  O73  1  0.54423000  0.00966000  0.05439000  1.0
