# generated using pymatgen
data_Zn2NiH14(C3O4)4
_symmetry_space_group_name_H-M   'P 1'
_cell_length_a   6.65155000
_cell_length_b   6.92075000
_cell_length_c   9.68563000
_cell_angle_alpha   85.23560000
_cell_angle_beta   77.80290000
_cell_angle_gamma   81.13400000
_symmetry_Int_Tables_number   1
_chemical_formula_structural   Zn2NiH14(C3O4)4
_chemical_formula_sum   'Zn2 Ni1 H14 C12 O16'
_cell_volume   430.00464606
_cell_formula_units_Z   1
loop_
 _symmetry_equiv_pos_site_id
 _symmetry_equiv_pos_as_xyz
  1  'x, y, z'
loop_
 _atom_site_type_symbol
 _atom_site_label
 _atom_site_symmetry_multiplicity
 _atom_site_fract_x
 _atom_site_fract_y
 _atom_site_fract_z
 _atom_site_occupancy
  Zn  Zn0  1  0.94438000  0.77177000  0.83373000  1.0
  Zn  Zn1  1  0.05562000  0.22823000  0.16627000  1.0
  Ni  Ni2  1  0.50000000  0.00000000  0.50000000  1.0
  H  H3  1  0.70323000  0.77957000  0.30888000  1.0
  H  H4  1  0.29677000  0.22043000  0.69111000  1.0
  H  H5  1  0.21189000  0.95449000  0.89291000  1.0
  H  H6  1  0.78811000  0.04551000  0.10709000  1.0
  H  H7  1  0.15563000  0.81228000  0.02487000  1.0
  H  H8  1  0.84437000  0.18772000  0.97513000  1.0
  H  H9  1  0.12017000  0.62789000  0.38017000  1.0
  H  H10  1  0.87983000  0.37211000  0.61983000  1.0
  H  H11  1  0.31850000  0.47941000  0.44757000  1.0
  H  H12  1  0.68151000  0.52059000  0.55243000  1.0
  H  H13  1  0.56421000  0.45425000  0.22849000  1.0
  H  H14  1  0.43579000  0.54575000  0.77150000  1.0
  H  H15  1  0.39311000  0.59006000  0.13139000  1.0
  H  H16  1  0.60689000  0.40995000  0.86861000  1.0
  C  C17  1  0.18265000  0.72497000  0.56808000  1.0
  C  C18  1  0.81735000  0.27502000  0.43192000  1.0
  C  C19  1  0.25697000  0.63321000  0.42606000  1.0
  C  C20  1  0.74303000  0.36679000  0.57394000  1.0
  C  C21  1  0.42073000  0.73060000  0.31973000  1.0
  C  C22  1  0.57927000  0.26940000  0.68027000  1.0
  C  C23  1  0.32468000  0.93811000  0.27437000  1.0
  C  C24  1  0.67532000  0.06189000  0.72563000  1.0
  C  C25  1  0.51120000  0.60478000  0.19194000  1.0
  C  C26  1  0.48880000  0.39523000  0.80806000  1.0
  C  C27  1  0.69369000  0.68308000  0.09381000  1.0
  C  C28  1  0.30631000  0.31692000  0.90619000  1.0
  O  O29  1  0.05745000  0.63162000  0.65970000  1.0
  O  O30  1  0.94255000  0.36837000  0.34030000  1.0
  O  O31  1  0.23746000  0.88193000  0.59737000  1.0
  O  O32  1  0.76254000  0.11806000  0.40263000  1.0
  O  O33  1  0.20522000  0.95224000  0.18473000  1.0
  O  O34  1  0.79478000  0.04776000  0.81527000  1.0
  O  O35  1  0.36156000  0.08423000  0.32981000  1.0
  O  O36  1  0.63843000  0.91576000  0.67018000  1.0
  O  O37  1  0.78902000  0.80206000  0.14065000  1.0
  O  O38  1  0.21099000  0.19794000  0.85935000  1.0
  O  O39  1  0.74657000  0.62419000  0.96802000  1.0
  O  O40  1  0.25343000  0.37582000  0.03198000  1.0
  O  O41  1  0.58729000  0.75046000  0.39093000  1.0
  O  O42  1  0.41271000  0.24954000  0.60907000  1.0
  O  O43  1  0.18418000  0.81759000  0.92082000  1.0
  O  O44  1  0.81582000  0.18241000  0.07918000  1.0
