# generated using pymatgen
data_Zn4H18C36O13
_symmetry_space_group_name_H-M   'P 1'
_cell_length_a   19.69070000
_cell_length_b   20.61099694
_cell_length_c   21.78667481
_cell_angle_alpha   66.12668823
_cell_angle_beta   65.04241000
_cell_angle_gamma   63.42854538
_symmetry_Int_Tables_number   1
_chemical_formula_structural   Zn4H18C36O13
_chemical_formula_sum   'Zn8 H36 C72 O26'
_cell_volume   6910.64522762
_cell_formula_units_Z   2
loop_
 _symmetry_equiv_pos_site_id
 _symmetry_equiv_pos_as_xyz
  1  'x, y, z'
loop_
 _atom_site_type_symbol
 _atom_site_label
 _atom_site_symmetry_multiplicity
 _atom_site_fract_x
 _atom_site_fract_y
 _atom_site_fract_z
 _atom_site_occupancy
  Zn  Zn0  1  0.99691000  0.93538000  0.93493000  1.0
  Zn  Zn1  1  0.15786000  0.93193000  0.93669000  1.0
  Zn  Zn2  1  0.00454000  0.94701000  0.07342000  1.0
  Zn  Zn3  1  0.00855000  0.08603000  0.93231000  1.0
  Zn  Zn4  1  0.59131000  0.51370000  0.50043000  1.0
  Zn  Zn5  1  0.42706000  0.51661000  0.50736000  1.0
  Zn  Zn6  1  0.57708000  0.36335000  0.50490000  1.0
  Zn  Zn7  1  0.57432000  0.50384000  0.36545000  1.0
  H  H8  1  0.08884000  0.79992000  0.80560000  1.0
  H  H9  1  0.15751000  0.72147000  0.72063000  1.0
  H  H10  1  0.28265000  0.65063000  0.64620000  1.0
  H  H11  1  0.50790000  0.63561000  0.64516000  1.0
  H  H12  1  0.43965000  0.71400000  0.73007000  1.0
  H  H13  1  0.31364000  0.78741000  0.80336000  1.0
  H  H14  1  0.86734000  0.79321000  0.02793000  1.0
  H  H15  1  0.78824000  0.70654000  0.09699000  1.0
  H  H16  1  0.71601000  0.63916000  0.21341000  1.0
  H  H17  1  0.70290000  0.66809000  0.40306000  1.0
  H  H18  1  0.78162000  0.75511000  0.33372000  1.0
  H  H19  1  0.85551000  0.82033000  0.21793000  1.0
  H  H20  1  0.87406000  0.02574000  0.79313000  1.0
  H  H21  1  0.79809000  0.09267000  0.70545000  1.0
  H  H22  1  0.72990000  0.21296000  0.63036000  1.0
  H  H23  1  0.74139000  0.42125000  0.61805000  1.0
  H  H24  1  0.82066000  0.35391000  0.70321000  1.0
  H  H25  1  0.88342000  0.23426000  0.78276000  1.0
  H  H26  1  0.32582000  0.79695000  0.03753000  1.0
  H  H27  1  0.41971000  0.71193000  0.10883000  1.0
  H  H28  1  0.44292000  0.64199000  0.22548000  1.0
  H  H29  1  0.24652000  0.65627000  0.41379000  1.0
  H  H30  1  0.15238000  0.74212000  0.34300000  1.0
  H  H31  1  0.12856000  0.81186000  0.22525000  1.0
  H  H32  1  0.33442000  0.02389000  0.80420000  1.0
  H  H33  1  0.42810000  0.09353000  0.71953000  1.0
  H  H34  1  0.45139000  0.21536000  0.64546000  1.0
  H  H35  1  0.25560000  0.42317000  0.64841000  1.0
  H  H36  1  0.16238000  0.35359000  0.73477000  1.0
  H  H37  1  0.13877000  0.23180000  0.80652000  1.0
  H  H38  1  0.86204000  0.25887000  0.02924000  1.0
  H  H39  1  0.77620000  0.35094000  0.10110000  1.0
  H  H40  1  0.70473000  0.37688000  0.21871000  1.0
  H  H41  1  0.70866000  0.19328000  0.40592000  1.0
  H  H42  1  0.79329000  0.10116000  0.33401000  1.0
  H  H43  1  0.86598000  0.07544000  0.21658000  1.0
  C  C44  1  0.15476000  0.84640000  0.85855000  1.0
  C  C45  1  0.19795000  0.79792000  0.80896000  1.0
  C  C46  1  0.15338000  0.77900000  0.78573000  1.0
  C  C47  1  0.19150000  0.73571000  0.73900000  1.0
  C  C48  1  0.27577000  0.70887000  0.71345000  1.0
  C  C49  1  0.31630000  0.66475000  0.66498000  1.0
  C  C50  1  0.39849000  0.63912000  0.64086000  1.0
  C  C51  1  0.44334000  0.65681000  0.66488000  1.0
  C  C52  1  0.40539000  0.69998000  0.71180000  1.0
  C  C53  1  0.32105000  0.72733000  0.73732000  1.0
  C  C54  1  0.28022000  0.77235000  0.78515000  1.0
  C  C55  1  0.44010000  0.59309000  0.58926000  1.0
  C  C56  1  0.91381000  0.86256000  0.07703000  1.0
  C  C57  1  0.86562000  0.81151000  0.11959000  1.0
  C  C58  1  0.84636000  0.77932000  0.08508000  1.0
  C  C59  1  0.80270000  0.73158000  0.12347000  1.0
  C  C60  1  0.77560000  0.71392000  0.19806000  1.0
  C  C61  1  0.73073000  0.66486000  0.23904000  1.0
  C  C62  1  0.70549000  0.64870000  0.31163000  1.0
  C  C63  1  0.72396000  0.68178000  0.34595000  1.0
  C  C64  1  0.76740000  0.72963000  0.30747000  1.0
  C  C65  1  0.79468000  0.74687000  0.23294000  1.0
  C  C66  1  0.84019000  0.79529000  0.19216000  1.0
  C  C67  1  0.65929000  0.59598000  0.35521000  1.0
  C  C68  1  0.92591000  0.08519000  0.84702000  1.0
  C  C69  1  0.88223000  0.12688000  0.79313000  1.0
  C  C70  1  0.85844000  0.08643000  0.77083000  1.0
  C  C71  1  0.81656000  0.12361000  0.72253000  1.0
  C  C72  1  0.79601000  0.20292000  0.69424000  1.0
  C  C73  1  0.75055000  0.24297000  0.64637000  1.0
  C  C74  1  0.73104000  0.32032000  0.62000000  1.0
  C  C75  1  0.75740000  0.36050000  0.64014000  1.0
  C  C76  1  0.80112000  0.32306000  0.68705000  1.0
  C  C77  1  0.82117000  0.24379000  0.71580000  1.0
  C  C78  1  0.86436000  0.20402000  0.76550000  1.0
  C  C79  1  0.68042000  0.36260000  0.57167000  1.0
  C  C80  1  0.16730000  0.85926000  0.08344000  1.0
  C  C81  1  0.22177000  0.80897000  0.12794000  1.0
  C  C82  1  0.30462000  0.78065000  0.09466000  1.0
  C  C83  1  0.35607000  0.73380000  0.13421000  1.0
  C  C84  1  0.32762000  0.71280000  0.20874000  1.0
  C  C85  1  0.37930000  0.66422000  0.25049000  1.0
  C  C86  1  0.35033000  0.64414000  0.32306000  1.0
  C  C87  1  0.26760000  0.67278000  0.35663000  1.0
  C  C88  1  0.21593000  0.72019000  0.31726000  1.0
  C  C89  1  0.24390000  0.74147000  0.24262000  1.0
  C  C90  1  0.19230000  0.78967000  0.20055000  1.0
  C  C91  1  0.40630000  0.59247000  0.36590000  1.0
  C  C92  1  0.17550000  0.08184000  0.85953000  1.0
  C  C93  1  0.23104000  0.12456000  0.80988000  1.0
  C  C94  1  0.31344000  0.08503000  0.78538000  1.0
  C  C95  1  0.36482000  0.12375000  0.73863000  1.0
  C  C96  1  0.33683000  0.20357000  0.71408000  1.0
  C  C97  1  0.38810000  0.24479000  0.66531000  1.0
  C  C98  1  0.35888000  0.32251000  0.64197000  1.0
  C  C99  1  0.27668000  0.36206000  0.66749000  1.0
  C  C100  1  0.22554000  0.32343000  0.71504000  1.0
  C  C101  1  0.25363000  0.24362000  0.73932000  1.0
  C  C102  1  0.20214000  0.20235000  0.78721000  1.0
  C  C103  1  0.41335000  0.36539000  0.58954000  1.0
  C  C104  1  0.92124000  0.10705000  0.07570000  1.0
  C  C105  1  0.86902000  0.16165000  0.11936000  1.0
  C  C106  1  0.84336000  0.24007000  0.08639000  1.0
  C  C107  1  0.79602000  0.29067000  0.12628000  1.0
  C  C108  1  0.77204000  0.26576000  0.20088000  1.0
  C  C109  1  0.72423000  0.31651000  0.24326000  1.0
  C  C110  1  0.70202000  0.29057000  0.31587000  1.0
  C  C111  1  0.72703000  0.21206000  0.34878000  1.0
  C  C112  1  0.77368000  0.16145000  0.30887000  1.0
  C  C113  1  0.79761000  0.18646000  0.23429000  1.0
  C  C114  1  0.84607000  0.13577000  0.19195000  1.0
  C  C115  1  0.65234000  0.34489000  0.36006000  1.0
  O  O116  1  0.04183000  0.97602000  0.97020000  1.0
  O  O117  1  0.19595000  0.86549000  0.87620000  1.0
  O  O118  1  0.07909000  0.86529000  0.87923000  1.0
  O  O119  1  0.39698000  0.58136000  0.56722000  1.0
  O  O120  1  0.51600000  0.56911000  0.57107000  1.0
  O  O121  1  0.93649000  0.88455000  0.10990000  1.0
  O  O122  1  0.92857000  0.87995000  0.01048000  1.0
  O  O123  1  0.64202000  0.56760000  0.32362000  1.0
  O  O124  1  0.64087000  0.58347000  0.42165000  1.0
  O  O125  1  0.94890000  0.12239000  0.86455000  1.0
  O  O126  1  0.93640000  0.01478000  0.87154000  1.0
  O  O127  1  0.64993000  0.32616000  0.56127000  1.0
  O  O128  1  0.67114000  0.43271000  0.54496000  1.0
  O  O129  1  0.09318000  0.88466000  0.11460000  1.0
  O  O130  1  0.20007000  0.87260000  0.01707000  1.0
  O  O131  1  0.47962000  0.56713000  0.33266000  1.0
  O  O132  1  0.37590000  0.57786000  0.43263000  1.0
  O  O133  1  0.10158000  0.11969000  0.87794000  1.0
  O  O134  1  0.20684000  0.01042000  0.87936000  1.0
  O  O135  1  0.48711000  0.32786000  0.56927000  1.0
  O  O136  1  0.38120000  0.43662000  0.56908000  1.0
  O  O137  1  0.94209000  0.03728000  0.10836000  1.0
  O  O138  1  0.94092000  0.13481000  0.00909000  1.0
  O  O139  1  0.63323000  0.41500000  0.32812000  1.0
  O  O140  1  0.63323000  0.31642000  0.42654000  1.0
  O  O141  1  0.54244000  0.47342000  0.46863000  1.0
