# generated using pymatgen
data_FeH6C10(NO2)4
_symmetry_space_group_name_H-M   'P 1'
_cell_length_a   6.96977000
_cell_length_b   11.13650000
_cell_length_c   11.56320000
_cell_angle_alpha   89.99990000
_cell_angle_beta   89.99960000
_cell_angle_gamma   100.63700000
_symmetry_Int_Tables_number   1
_chemical_formula_structural   FeH6C10(NO2)4
_chemical_formula_sum   'Fe2 H12 C20 N8 O16'
_cell_volume   882.09950802
_cell_formula_units_Z   2
loop_
 _symmetry_equiv_pos_site_id
 _symmetry_equiv_pos_as_xyz
  1  'x, y, z'
loop_
 _atom_site_type_symbol
 _atom_site_label
 _atom_site_symmetry_multiplicity
 _atom_site_fract_x
 _atom_site_fract_y
 _atom_site_fract_z
 _atom_site_occupancy
  Fe  Fe0  1  0.00000000  0.00000000  0.00000000  1.0
  Fe  Fe1  1  0.50000000  0.50000000  0.50000000  1.0
  H  H2  1  0.50210000  0.19421000  0.81356000  1.0
  H  H3  1  0.00209000  0.69420000  0.68644000  1.0
  H  H4  1  0.49790000  0.80579000  0.18644000  1.0
  H  H5  1  0.99791000  0.30580000  0.31356000  1.0
  H  H6  1  0.90962000  0.28468000  0.73285000  1.0
  H  H7  1  0.40963000  0.78468000  0.76715000  1.0
  H  H8  1  0.09038000  0.71532000  0.26715000  1.0
  H  H9  1  0.59037000  0.21532000  0.23285000  1.0
  H  H10  1  0.00797000  0.44458000  0.58110000  1.0
  H  H11  1  0.50797000  0.94459000  0.91889000  1.0
  H  H12  1  0.99203000  0.55542000  0.41890000  1.0
  H  H13  1  0.49203000  0.05541000  0.08111000  1.0
  C  C14  1  0.11080000  0.39748000  0.62370000  1.0
  C  C15  1  0.61080000  0.89749000  0.87630000  1.0
  C  C16  1  0.88920000  0.60251000  0.37630000  1.0
  C  C17  1  0.38920000  0.10251000  0.12370000  1.0
  C  C18  1  0.21677000  0.26967000  0.74428000  1.0
  C  C19  1  0.71677000  0.76967000  0.75573000  1.0
  C  C20  1  0.78323000  0.73033000  0.25572000  1.0
  C  C21  1  0.28323000  0.23034000  0.24427000  1.0
  C  C22  1  0.37121000  0.33123000  0.67815000  1.0
  C  C23  1  0.87121000  0.83123000  0.82185000  1.0
  C  C24  1  0.62879000  0.66877000  0.32185000  1.0
  C  C25  1  0.12879000  0.16877000  0.17815000  1.0
  C  C26  1  0.21461000  0.17723000  0.83357000  1.0
  C  C27  1  0.71460000  0.67723000  0.66643000  1.0
  C  C28  1  0.78539000  0.82277000  0.16643000  1.0
  C  C29  1  0.28540000  0.32277000  0.33357000  1.0
  C  C30  1  0.57953000  0.32642000  0.67096000  1.0
  C  C31  1  0.07953000  0.82641000  0.82904000  1.0
  C  C32  1  0.42047000  0.67358000  0.32904000  1.0
  C  C33  1  0.92047000  0.17359000  0.17096000  1.0
  N  N34  1  0.30225000  0.40993000  0.60352000  1.0
  N  N35  1  0.80225000  0.90993000  0.89648000  1.0
  N  N36  1  0.69775000  0.59007000  0.39648000  1.0
  N  N37  1  0.19775000  0.09007000  0.10352000  1.0
  N  N38  1  0.05503000  0.31347000  0.70744000  1.0
  N  N39  1  0.55503000  0.81346000  0.79256000  1.0
  N  N40  1  0.94497000  0.68653000  0.29257000  1.0
  N  N41  1  0.44497000  0.18653000  0.20743000  1.0
  O  O42  1  0.05433000  0.13084000  0.87956000  1.0
  O  O43  1  0.55434000  0.63084000  0.62045000  1.0
  O  O44  1  0.94567000  0.86916000  0.12044000  1.0
  O  O45  1  0.44567000  0.36916000  0.37955000  1.0
  O  O46  1  0.38125000  0.14630000  0.86232000  1.0
  O  O47  1  0.88125000  0.64630000  0.63769000  1.0
  O  O48  1  0.61875000  0.85370000  0.13769000  1.0
  O  O49  1  0.11876000  0.35371000  0.36231000  1.0
  O  O50  1  0.67494000  0.39167000  0.59218000  1.0
  O  O51  1  0.17494000  0.89168000  0.90782000  1.0
  O  O52  1  0.32506000  0.60833000  0.40783000  1.0
  O  O53  1  0.82506000  0.10832000  0.09218000  1.0
  O  O54  1  0.65482000  0.25934000  0.74213000  1.0
  O  O55  1  0.15482000  0.75933000  0.75787000  1.0
  O  O56  1  0.34518000  0.74066000  0.25787000  1.0
  O  O57  1  0.84518000  0.24067000  0.24213000  1.0
