# generated using pymatgen
data_CoH25C30(N2O3)2
_symmetry_space_group_name_H-M   'P 1'
_cell_length_a   13.59980000
_cell_length_b   14.06720000
_cell_length_c   14.06720000
_cell_angle_alpha   74.07860000
_cell_angle_beta   86.16430000
_cell_angle_gamma   86.16450000
_symmetry_Int_Tables_number   1
_chemical_formula_structural   CoH25C30(N2O3)2
_chemical_formula_sum   'Co4 H100 C120 N16 O24'
_cell_volume   2578.87008974
_cell_formula_units_Z   4
loop_
 _symmetry_equiv_pos_site_id
 _symmetry_equiv_pos_as_xyz
  1  'x, y, z'
loop_
 _atom_site_type_symbol
 _atom_site_label
 _atom_site_symmetry_multiplicity
 _atom_site_fract_x
 _atom_site_fract_y
 _atom_site_fract_z
 _atom_site_occupancy
  Co  Co0  1  0.17465000  0.88235000  0.51935000  1.0
  Co  Co1  1  0.32535000  0.48065000  0.11764000  1.0
  Co  Co2  1  0.82535000  0.11765000  0.48066000  1.0
  Co  Co3  1  0.67465000  0.51934000  0.88235000  1.0
  H  H4  1  0.67846000  0.93605000  0.50812000  1.0
  H  H5  1  0.82154000  0.49188000  0.06394000  1.0
  H  H6  1  0.32153000  0.06395000  0.49189000  1.0
  H  H7  1  0.17846000  0.50811000  0.93605000  1.0
  H  H8  1  0.95574000  0.94958000  0.61891000  1.0
  H  H9  1  0.54426000  0.38108000  0.05042000  1.0
  H  H10  1  0.04425000  0.05043000  0.38108000  1.0
  H  H11  1  0.45574000  0.61892000  0.94958000  1.0
  H  H12  1  0.88834000  0.75916000  0.69853000  1.0
  H  H13  1  0.61166000  0.30147000  0.24085000  1.0
  H  H14  1  0.11166000  0.24085000  0.30146000  1.0
  H  H15  1  0.38834000  0.69854000  0.75915000  1.0
  H  H16  1  0.73732000  0.68683000  0.58494000  1.0
  H  H17  1  0.76268000  0.41506000  0.31317000  1.0
  H  H18  1  0.26268000  0.31318000  0.41505000  1.0
  H  H19  1  0.23732000  0.58494000  0.68683000  1.0
  H  H20  1  0.71657000  0.69466000  0.70786000  1.0
  H  H21  1  0.78342000  0.29214000  0.30534000  1.0
  H  H22  1  0.28343000  0.30535000  0.29213000  1.0
  H  H23  1  0.21657000  0.70786000  0.69466000  1.0
  H  H24  1  0.55966000  0.69298000  0.66096000  1.0
  H  H25  1  0.94034000  0.33904000  0.30702000  1.0
  H  H26  1  0.44034000  0.30702000  0.33904000  1.0
  H  H27  1  0.05966000  0.66096000  0.69298000  1.0
  H  H28  1  0.57071000  0.82220000  0.64255000  1.0
  H  H29  1  0.92930000  0.35745000  0.17780000  1.0
  H  H30  1  0.42929000  0.17779000  0.35745000  1.0
  H  H31  1  0.07070000  0.64255000  0.82220000  1.0
  H  H32  1  0.60299000  0.71374000  0.47919000  1.0
  H  H33  1  0.89702000  0.52081000  0.28626000  1.0
  H  H34  1  0.39701000  0.28626000  0.52081000  1.0
  H  H35  1  0.10298000  0.47919000  0.71374000  1.0
  H  H36  1  0.59524000  0.84329000  0.45865000  1.0
  H  H37  1  0.90476000  0.54135000  0.15671000  1.0
  H  H38  1  0.40476000  0.15671000  0.54135000  1.0
  H  H39  1  0.09524000  0.45865000  0.84329000  1.0
  H  H40  1  0.40702000  0.88797000  0.56622000  1.0
  H  H41  1  0.09298000  0.43377000  0.11203000  1.0
  H  H42  1  0.59298000  0.11203000  0.43377000  1.0
  H  H43  1  0.90701000  0.56622000  0.88798000  1.0
  H  H44  1  0.45965000  0.65816000  0.42483000  1.0
  H  H45  1  0.04035000  0.57517000  0.34183000  1.0
  H  H46  1  0.54035000  0.34184000  0.57518000  1.0
  H  H47  1  0.95965000  0.42483000  0.65816000  1.0
  H  H48  1  0.25688000  0.70539000  0.43636000  1.0
  H  H49  1  0.24312000  0.56364000  0.29460000  1.0
  H  H50  1  0.74311000  0.29461000  0.56365000  1.0
  H  H51  1  0.75688000  0.43636000  0.70540000  1.0
  H  H52  1  0.91420000  0.87510000  0.34788000  1.0
  H  H53  1  0.58580000  0.65212000  0.12490000  1.0
  H  H54  1  0.08581000  0.12490000  0.65212000  1.0
  H  H55  1  0.41420000  0.34788000  0.87510000  1.0
  H  H56  1  0.76843000  0.81560000  0.28746000  1.0
  H  H57  1  0.73156000  0.71254000  0.18440000  1.0
  H  H58  1  0.23157000  0.18440000  0.71254000  1.0
  H  H59  1  0.26844000  0.28746000  0.81560000  1.0
  H  H60  1  0.83574000  0.52042000  0.47027000  1.0
  H  H61  1  0.66426000  0.52973000  0.47958000  1.0
  H  H62  1  0.16426000  0.47958000  0.52973000  1.0
  H  H63  1  0.33575000  0.47027000  0.52041000  1.0
  H  H64  1  0.98101000  0.58235000  0.52974000  1.0
  H  H65  1  0.51898000  0.47026000  0.41765000  1.0
  H  H66  1  0.01898000  0.41765000  0.47026000  1.0
  H  H67  1  0.48102000  0.52974000  0.58235000  1.0
  H  H68  1  0.99205000  0.87180000  0.77788000  1.0
  H  H69  1  0.50794000  0.22212000  0.12820000  1.0
  H  H70  1  0.00794000  0.12821000  0.22212000  1.0
  H  H71  1  0.49207000  0.77788000  0.87179000  1.0
  H  H72  1  0.90356000  0.91585000  0.91815000  1.0
  H  H73  1  0.59644000  0.08185000  0.08416000  1.0
  H  H74  1  0.09644000  0.08416000  0.08186000  1.0
  H  H75  1  0.40357000  0.91815000  0.91584000  1.0
  H  H76  1  0.16478000  0.04611000  0.97409000  1.0
  H  H77  1  0.33523000  0.02592000  0.95387000  1.0
  H  H78  1  0.83522000  0.95388000  0.02592000  1.0
  H  H79  1  0.66478000  0.97408000  0.04612000  1.0
  H  H80  1  0.25076000  0.00532000  0.83080000  1.0
  H  H81  1  0.24924000  0.16920000  0.99466000  1.0
  H  H82  1  0.74924000  0.99468000  0.16920000  1.0
  H  H83  1  0.75077000  0.83079000  0.00533000  1.0
  H  H84  1  0.46087000  0.18244000  0.77794000  1.0
  H  H85  1  0.03913000  0.22206000  0.81756000  1.0
  H  H86  1  0.53913000  0.81756000  0.22206000  1.0
  H  H87  1  0.96087000  0.77794000  0.18244000  1.0
  H  H88  1  0.59488000  0.25607000  0.83909000  1.0
  H  H89  1  0.90512000  0.16091000  0.74393000  1.0
  H  H90  1  0.40512000  0.74393000  0.16091000  1.0
  H  H91  1  0.09488000  0.83909000  0.25607000  1.0
  H  H92  1  0.80468000  0.04252000  0.75999000  1.0
  H  H93  1  0.69532000  0.24001000  0.95748000  1.0
  H  H94  1  0.19532000  0.95747000  0.24001000  1.0
  H  H95  1  0.30468000  0.76000000  0.04252000  1.0
  H  H96  1  0.66958000  0.97158000  0.69665000  1.0
  H  H97  1  0.83042000  0.30335000  0.02842000  1.0
  H  H98  1  0.33042000  0.02842000  0.30336000  1.0
  H  H99  1  0.16958000  0.69665000  0.97158000  1.0
  H  H100  1  0.33663000  0.00763000  0.70197000  1.0
  H  H101  1  0.16337000  0.29803000  0.99237000  1.0
  H  H102  1  0.66337000  0.99237000  0.29804000  1.0
  H  H103  1  0.83663000  0.70196000  0.00763000  1.0
  C  C104  1  0.74522000  0.91397000  0.54794000  1.0
  C  C105  1  0.75478000  0.45206000  0.08602000  1.0
  C  C106  1  0.25478000  0.08603000  0.45206000  1.0
  C  C107  1  0.24522000  0.54794000  0.91398000  1.0
  C  C108  1  0.88820000  0.91818000  0.60824000  1.0
  C  C109  1  0.61180000  0.39176000  0.08182000  1.0
  C  C110  1  0.11180000  0.08183000  0.39176000  1.0
  C  C111  1  0.38820000  0.60824000  0.91818000  1.0
  C  C112  1  0.85610000  0.82428000  0.64755000  1.0
  C  C113  1  0.64390000  0.35246000  0.17573000  1.0
  C  C114  1  0.14390000  0.17573000  0.35245000  1.0
  C  C115  1  0.35610000  0.64754000  0.82427000  1.0
  C  C116  1  0.70633000  0.73512000  0.63036000  1.0
  C  C117  1  0.79367000  0.36964000  0.26488000  1.0
  C  C118  1  0.29367000  0.26488000  0.36964000  1.0
  C  C119  1  0.20633000  0.63036000  0.73512000  1.0
  C  C120  1  0.59646000  0.75830000  0.61528000  1.0
  C  C121  1  0.90354000  0.38472000  0.24170000  1.0
  C  C122  1  0.40354000  0.24170000  0.38472000  1.0
  C  C123  1  0.09646000  0.61528000  0.75830000  1.0
  C  C124  1  0.56926000  0.77382000  0.50822000  1.0
  C  C125  1  0.93074000  0.49177000  0.22618000  1.0
  C  C126  1  0.43074000  0.22618000  0.49178000  1.0
  C  C127  1  0.06925000  0.50823000  0.77382000  1.0
  C  C128  1  0.39199000  0.83268000  0.52892000  1.0
  C  C129  1  0.10801000  0.47108000  0.16731000  1.0
  C  C130  1  0.60801000  0.16732000  0.47108000  1.0
  C  C131  1  0.89199000  0.52892000  0.83269000  1.0
  C  C132  1  0.41739000  0.71148000  0.45587000  1.0
  C  C133  1  0.08261000  0.54413000  0.28852000  1.0
  C  C134  1  0.58261000  0.28852000  0.54413000  1.0
  C  C135  1  0.91739000  0.45586000  0.71148000  1.0
  C  C136  1  0.31834000  0.73610000  0.46067000  1.0
  C  C137  1  0.18166000  0.53933000  0.26390000  1.0
  C  C138  1  0.68166000  0.26390000  0.53933000  1.0
  C  C139  1  0.81834000  0.46067000  0.73611000  1.0
  C  C140  1  0.04771000  0.76377000  0.47667000  1.0
  C  C141  1  0.45228000  0.52333000  0.23623000  1.0
  C  C142  1  0.95228000  0.23622000  0.52334000  1.0
  C  C143  1  0.54772000  0.47667000  0.76377000  1.0
  C  C144  1  0.95741000  0.73172000  0.44138000  1.0
  C  C145  1  0.54258000  0.55862000  0.26828000  1.0
  C  C146  1  0.04258000  0.26828000  0.55863000  1.0
  C  C147  1  0.45742000  0.44138000  0.73172000  1.0
  C  C148  1  0.89671000  0.79748000  0.37368000  1.0
  C  C149  1  0.60329000  0.62632000  0.20252000  1.0
  C  C150  1  0.10329000  0.20252000  0.62632000  1.0
  C  C151  1  0.39671000  0.37368000  0.79748000  1.0
  C  C152  1  0.81564000  0.76365000  0.33954000  1.0
  C  C153  1  0.68436000  0.66046000  0.23635000  1.0
  C  C154  1  0.18437000  0.23635000  0.66045000  1.0
  C  C155  1  0.31564000  0.33954000  0.76365000  1.0
  C  C156  1  0.79248000  0.66349000  0.37324000  1.0
  C  C157  1  0.70751000  0.62676000  0.33651000  1.0
  C  C158  1  0.20752000  0.33651000  0.62675000  1.0
  C  C159  1  0.29249000  0.37324000  0.66349000  1.0
  C  C160  1  0.85204000  0.59851000  0.44359000  1.0
  C  C161  1  0.64795000  0.55640000  0.40149000  1.0
  C  C162  1  0.14796000  0.40149000  0.55641000  1.0
  C  C163  1  0.35205000  0.44359000  0.59851000  1.0
  C  C164  1  0.93353000  0.63233000  0.47663000  1.0
  C  C165  1  0.56647000  0.52337000  0.36767000  1.0
  C  C166  1  0.06647000  0.36767000  0.52337000  1.0
  C  C167  1  0.43353000  0.47663000  0.63233000  1.0
  C  C168  1  0.17605000  0.91697000  0.70215000  1.0
  C  C169  1  0.32396000  0.29785000  0.08302000  1.0
  C  C170  1  0.82395000  0.08303000  0.29785000  1.0
  C  C171  1  0.67605000  0.70215000  0.91698000  1.0
  C  C172  1  0.12696000  0.93683000  0.79310000  1.0
  C  C173  1  0.37304000  0.20690000  0.06317000  1.0
  C  C174  1  0.87303000  0.06317000  0.20690000  1.0
  C  C175  1  0.62697000  0.79310000  0.93683000  1.0
  C  C176  1  0.02907000  0.91127000  0.82055000  1.0
  C  C177  1  0.47093000  0.17945000  0.08873000  1.0
  C  C178  1  0.97093000  0.08873000  0.17945000  1.0
  C  C179  1  0.52908000  0.82055000  0.91127000  1.0
  C  C180  1  0.97967000  0.93634000  0.90036000  1.0
  C  C181  1  0.52033000  0.09963000  0.06366000  1.0
  C  C182  1  0.02033000  0.06366000  0.09964000  1.0
  C  C183  1  0.47968000  0.90036000  0.93634000  1.0
  C  C184  1  0.02630000  0.98623000  0.95771000  1.0
  C  C185  1  0.47370000  0.04229000  0.01377000  1.0
  C  C186  1  0.97370000  0.01377000  0.04229000  1.0
  C  C187  1  0.52630000  0.95771000  0.98623000  1.0
  C  C188  1  0.12536000  0.00874000  0.93125000  1.0
  C  C189  1  0.37465000  0.06875000  0.99125000  1.0
  C  C190  1  0.87464000  0.99125000  0.06875000  1.0
  C  C191  1  0.62536000  0.93125000  0.00875000  1.0
  C  C192  1  0.17466000  0.98522000  0.85037000  1.0
  C  C193  1  0.32534000  0.14963000  0.01476000  1.0
  C  C194  1  0.82534000  0.01478000  0.14963000  1.0
  C  C195  1  0.67466000  0.85037000  0.98524000  1.0
  C  C196  1  0.47842000  0.02522000  0.69557000  1.0
  C  C197  1  0.02158000  0.30443000  0.97478000  1.0
  C  C198  1  0.52158000  0.97478000  0.30443000  1.0
  C  C199  1  0.97842000  0.69557000  0.02522000  1.0
  C  C200  1  0.55657000  0.07178000  0.73347000  1.0
  C  C201  1  0.94343000  0.26653000  0.92822000  1.0
  C  C202  1  0.44343000  0.92822000  0.26653000  1.0
  C  C203  1  0.05657000  0.73347000  0.07178000  1.0
  C  C204  1  0.53625000  0.15186000  0.77424000  1.0
  C  C205  1  0.96375000  0.22576000  0.84814000  1.0
  C  C206  1  0.46375000  0.84814000  0.22576000  1.0
  C  C207  1  0.03625000  0.77424000  0.15186000  1.0
  C  C208  1  0.61194000  0.19270000  0.80922000  1.0
  C  C209  1  0.88805000  0.19078000  0.80730000  1.0
  C  C210  1  0.38806000  0.80730000  0.19078000  1.0
  C  C211  1  0.11194000  0.80922000  0.19270000  1.0
  C  C212  1  0.70996000  0.15427000  0.80522000  1.0
  C  C213  1  0.79004000  0.19478000  0.84574000  1.0
  C  C214  1  0.29004000  0.84573000  0.19479000  1.0
  C  C215  1  0.20996000  0.80522000  0.15427000  1.0
  C  C216  1  0.72966000  0.07439000  0.76330000  1.0
  C  C217  1  0.77034000  0.23670000  0.92561000  1.0
  C  C218  1  0.27034000  0.92561000  0.23670000  1.0
  C  C219  1  0.22966000  0.76330000  0.07439000  1.0
  C  C220  1  0.65421000  0.03397000  0.72796000  1.0
  C  C221  1  0.84580000  0.27205000  0.96603000  1.0
  C  C222  1  0.34579000  0.96603000  0.27205000  1.0
  C  C223  1  0.15421000  0.72796000  0.03397000  1.0
  N  N224  1  0.81814000  0.97355000  0.54659000  1.0
  N  N225  1  0.68185000  0.45340000  0.02644000  1.0
  N  N226  1  0.18185000  0.02645000  0.45341000  1.0
  N  N227  1  0.31815000  0.54659000  0.97355000  1.0
  N  N228  1  0.76549000  0.82286000  0.60894000  1.0
  N  N229  1  0.73452000  0.39107000  0.17713000  1.0
  N  N230  1  0.23452000  0.17714000  0.39106000  1.0
  N  N231  1  0.26548000  0.60894000  0.82286000  1.0
  N  N232  1  0.46279000  0.77270000  0.49936000  1.0
  N  N233  1  0.03721000  0.50064000  0.22730000  1.0
  N  N234  1  0.53721000  0.22731000  0.50064000  1.0
  N  N235  1  0.96278000  0.49936000  0.77270000  1.0
  N  N236  1  0.30336000  0.81178000  0.50619000  1.0
  N  N237  1  0.19664000  0.49381000  0.18822000  1.0
  N  N238  1  0.69664000  0.18822000  0.49381000  1.0
  N  N239  1  0.80336000  0.50619000  0.81178000  1.0
  O  O240  1  0.06677000  0.85682000  0.44443000  1.0
  O  O241  1  0.43323000  0.55557000  0.14318000  1.0
  O  O242  1  0.93324000  0.14317000  0.55557000  1.0
  O  O243  1  0.56677000  0.44442000  0.85682000  1.0
  O  O244  1  0.10170000  0.70148000  0.53479000  1.0
  O  O245  1  0.39830000  0.46520000  0.29851000  1.0
  O  O246  1  0.89829000  0.29851000  0.46522000  1.0
  O  O247  1  0.60170000  0.53480000  0.70149000  1.0
  O  O248  1  0.12500000  0.87176000  0.65542000  1.0
  O  O249  1  0.37501000  0.34459000  0.12823000  1.0
  O  O250  1  0.87500000  0.12825000  0.34458000  1.0
  O  O251  1  0.62500000  0.65541000  0.87177000  1.0
  O  O252  1  0.26179000  0.94534000  0.67077000  1.0
  O  O253  1  0.23821000  0.32922000  0.05466000  1.0
  O  O254  1  0.73821000  0.05466000  0.32923000  1.0
  O  O255  1  0.76180000  0.67077000  0.94534000  1.0
  O  O256  1  0.38610000  0.04885000  0.72448000  1.0
  O  O257  1  0.11389000  0.27552000  0.95115000  1.0
  O  O258  1  0.61390000  0.95115000  0.27553000  1.0
  O  O259  1  0.88610000  0.72447000  0.04885000  1.0
  O  O260  1  0.49653000  0.96972000  0.64133000  1.0
  O  O261  1  0.00347000  0.35868000  0.03029000  1.0
  O  O262  1  0.50347000  0.03030000  0.35867000  1.0
  O  O263  1  0.99653000  0.64133000  0.96971000  1.0
