# generated using pymatgen
data_ZnH10C19(NO2)2
_symmetry_space_group_name_H-M   'P 1'
_cell_length_a   13.13240000
_cell_length_b   13.99900000
_cell_length_c   15.40520000
_cell_angle_alpha   90.26700000
_cell_angle_beta   90.92630000
_cell_angle_gamma   97.37910000
_symmetry_Int_Tables_number   1
_chemical_formula_structural   ZnH10C19(NO2)2
_chemical_formula_sum   'Zn2 H20 C38 N4 O8'
_cell_volume   2808.21210134
_cell_formula_units_Z   2
loop_
 _symmetry_equiv_pos_site_id
 _symmetry_equiv_pos_as_xyz
  1  'x, y, z'
loop_
 _atom_site_type_symbol
 _atom_site_label
 _atom_site_symmetry_multiplicity
 _atom_site_fract_x
 _atom_site_fract_y
 _atom_site_fract_z
 _atom_site_occupancy
  Zn  Zn0  1  0.50636000  0.60253000  0.50009000  1.0
  Zn  Zn1  1  0.49891000  0.39864000  0.50188000  1.0
  H  H2  1  0.81615000  0.37379000  0.49445000  1.0
  H  H3  1  0.18854000  0.61607000  0.50542000  1.0
  H  H4  1  0.63447000  0.26464000  0.42755000  1.0
  H  H5  1  0.44831000  0.74845000  0.62354000  1.0
  H  H6  1  0.64366000  0.08755000  0.42459000  1.0
  H  H7  1  0.44753000  0.92585000  0.63021000  1.0
  H  H8  1  0.83724000  0.68199000  0.50867000  1.0
  H  H9  1  0.16725000  0.30833000  0.48490000  1.0
  H  H10  1  0.97572000  0.29457000  0.48532000  1.0
  H  H11  1  0.02889000  0.69551000  0.50913000  1.0
  H  H12  1  0.51816000  0.65524000  0.94655000  1.0
  H  H13  1  0.54830000  0.36479000  0.05823000  1.0
  H  H14  1  0.45232000  0.35348000  0.77382000  1.0
  H  H15  1  0.43034000  0.63229000  0.22562000  1.0
  H  H16  1  0.44392000  0.34634000  0.93517000  1.0
  H  H17  1  0.41620000  0.63128000  0.06421000  1.0
  H  H18  1  0.36471000  0.05046000  0.57329000  1.0
  H  H19  1  0.56511000  0.93977000  0.36895000  1.0
  H  H20  1  0.36875000  0.22998000  0.57090000  1.0
  H  H21  1  0.56206000  0.76036000  0.37448000  1.0
  C  C22  1  0.49466000  0.50581000  0.67161000  1.0
  C  C23  1  0.50047000  0.50418000  0.33040000  1.0
  C  C24  1  0.48816000  0.50637000  0.76907000  1.0
  C  C25  1  0.49403000  0.49961000  0.23298000  1.0
  C  C26  1  0.46634000  0.41900000  0.81297000  1.0
  C  C27  1  0.45552000  0.57399000  0.18772000  1.0
  C  C28  1  0.46274000  0.41549000  0.90307000  1.0
  C  C29  1  0.44883000  0.57345000  0.09761000  1.0
  C  C30  1  0.48164000  0.50031000  0.95321000  1.0
  C  C31  1  0.48254000  0.49850000  0.04907000  1.0
  C  C32  1  0.42704000  0.09525000  0.54151000  1.0
  C  C33  1  0.53927000  0.90034000  0.42706000  1.0
  C  C34  1  0.42827000  0.19449000  0.54031000  1.0
  C  C35  1  0.53754000  0.80100000  0.42919000  1.0
  C  C36  1  0.57717000  0.21425000  0.45964000  1.0
  C  C37  1  0.47203000  0.79363000  0.56832000  1.0
  C  C38  1  0.58092000  0.11550000  0.45769000  1.0
  C  C39  1  0.47147000  0.89274000  0.57109000  1.0
  C  C40  1  0.50482000  0.05369000  0.49951000  1.0
  C  C41  1  0.50535000  0.94835000  0.49922000  1.0
  C  C42  1  0.30298000  0.47171000  0.49733000  1.0
  C  C43  1  0.70156000  0.51822000  0.50310000  1.0
  C  C44  1  0.81635000  0.52635000  0.50163000  1.0
  C  C45  1  0.18817000  0.46376000  0.49590000  1.0
  C  C46  1  0.02240000  0.36489000  0.48971000  1.0
  C  C47  1  0.98210000  0.62520000  0.50530000  1.0
  C  C48  1  0.12792000  0.37207000  0.48965000  1.0
  C  C49  1  0.87659000  0.61816000  0.50524000  1.0
  C  C50  1  0.14084000  0.54640000  0.50092000  1.0
  C  C51  1  0.86368000  0.44365000  0.49688000  1.0
  C  C52  1  0.03263000  0.54145000  0.50049000  1.0
  C  C53  1  0.97184000  0.44859000  0.49545000  1.0
  C  C54  1  0.50188000  0.58817000  0.90980000  1.0
  C  C55  1  0.51999000  0.42311000  0.09394000  1.0
  C  C56  1  0.50478000  0.59217000  0.81878000  1.0
  C  C57  1  0.52527000  0.42243000  0.18513000  1.0
  C  C58  1  0.52456000  0.68675000  0.78289000  1.0
  C  C59  1  0.56578000  0.34248000  0.22458000  1.0
  N  N60  1  0.50227000  0.25287000  0.50041000  1.0
  N  N61  1  0.50439000  0.74858000  0.49865000  1.0
  N  N62  1  0.53873000  0.76859000  0.76561000  1.0
  N  N63  1  0.60062000  0.27390000  0.24748000  1.0
  O  O64  1  0.51370000  0.58716000  0.63498000  1.0
  O  O65  1  0.51209000  0.42656000  0.36929000  1.0
  O  O66  1  0.48124000  0.42381000  0.63448000  1.0
  O  O67  1  0.49325000  0.58552000  0.36528000  1.0
  O  O68  1  0.35230000  0.55564000  0.50742000  1.0
  O  O69  1  0.65333000  0.43436000  0.51486000  1.0
  O  O70  1  0.34314000  0.39398000  0.48863000  1.0
  O  O71  1  0.66045000  0.59511000  0.49253000  1.0
