# generated using pymatgen
data_ZnH18C10(N2O3)2
_symmetry_space_group_name_H-M   'P 1'
_cell_length_a   4.98191000
_cell_length_b   9.40969000
_cell_length_c   14.51880000
_cell_angle_alpha   105.68200000
_cell_angle_beta   89.99960000
_cell_angle_gamma   89.99930000
_symmetry_Int_Tables_number   1
_chemical_formula_structural   ZnH18C10(N2O3)2
_chemical_formula_sum   'Zn2 H36 C20 N8 O12'
_cell_volume   655.28087440
_cell_formula_units_Z   2
loop_
 _symmetry_equiv_pos_site_id
 _symmetry_equiv_pos_as_xyz
  1  'x, y, z'
loop_
 _atom_site_type_symbol
 _atom_site_label
 _atom_site_symmetry_multiplicity
 _atom_site_fract_x
 _atom_site_fract_y
 _atom_site_fract_z
 _atom_site_occupancy
  Zn  Zn0  1  0.16074000  0.74904000  0.01950000  1.0
  Zn  Zn1  1  0.66073000  0.25098000  0.98049000  1.0
  H  H2  1  0.63046000  0.35062000  0.65663000  1.0
  H  H3  1  0.13048000  0.64934000  0.34336000  1.0
  H  H4  1  0.27992000  0.87107000  0.23057000  1.0
  H  H5  1  0.77991000  0.12893000  0.76942000  1.0
  H  H6  1  0.19680000  0.30504000  0.73756000  1.0
  H  H7  1  0.69682000  0.69497000  0.26245000  1.0
  H  H8  1  0.12877000  0.27589000  0.58418000  1.0
  H  H9  1  0.62875000  0.72410000  0.41581000  1.0
  H  H10  1  0.62042000  0.53822000  0.72286000  1.0
  H  H11  1  0.12040000  0.46174000  0.27713000  1.0
  H  H12  1  0.05432000  0.57658000  0.79730000  1.0
  H  H13  1  0.55430000  0.42345000  0.20270000  1.0
  H  H14  1  0.77482000  0.82858000  0.15011000  1.0
  H  H15  1  0.27482000  0.17143000  0.84989000  1.0
  H  H16  1  0.74651000  0.91717000  0.06843000  1.0
  H  H17  1  0.24652000  0.08285000  0.93157000  1.0
  H  H18  1  0.18208000  0.18083000  0.36365000  1.0
  H  H19  1  0.68211000  0.81917000  0.63636000  1.0
  H  H20  1  0.48248000  0.35004000  0.81203000  1.0
  H  H21  1  0.98249000  0.64997000  0.18798000  1.0
  H  H22  1  0.44693000  0.14630000  0.28210000  1.0
  H  H23  1  0.94694000  0.85370000  0.71790000  1.0
  H  H24  1  0.98919000  0.93572000  0.29761000  1.0
  H  H25  1  0.48919000  0.06427000  0.70239000  1.0
  H  H26  1  0.89548000  0.10577000  0.19524000  1.0
  H  H27  1  0.39548000  0.89424000  0.80477000  1.0
  H  H28  1  0.76876000  0.11205000  0.49852000  1.0
  H  H29  1  0.26879000  0.88794000  0.50148000  1.0
  H  H30  1  0.67551000  0.24038000  0.43487000  1.0
  H  H31  1  0.17552000  0.75961000  0.56514000  1.0
  H  H32  1  0.03544000  0.39514000  0.51472000  1.0
  H  H33  1  0.53543000  0.60484000  0.48529000  1.0
  H  H34  1  0.44763000  0.70039000  0.85969000  1.0
  H  H35  1  0.94758000  0.29961000  0.14030000  1.0
  H  H36  1  0.51823000  0.58671000  0.92327000  1.0
  H  H37  1  0.01823000  0.41329000  0.07673000  1.0
  C  C38  1  0.98702000  0.46799000  0.90428000  1.0
  C  C39  1  0.48703000  0.53206000  0.09572000  1.0
  C  C40  1  0.25679000  0.05398000  0.11076000  1.0
  C  C41  1  0.75681000  0.94602000  0.88923000  1.0
  C  C42  1  0.15281000  0.96897000  0.25694000  1.0
  C  C43  1  0.65281000  0.03104000  0.74306000  1.0
  C  C44  1  0.18400000  0.52004000  0.83793000  1.0
  C  C45  1  0.68400000  0.47998000  0.16207000  1.0
  C  C46  1  0.33775000  0.39437000  0.76996000  1.0
  C  C47  1  0.83776000  0.60563000  0.23005000  1.0
  C  C48  1  0.49448000  0.44122000  0.69212000  1.0
  C  C49  1  0.99448000  0.55875000  0.30787000  1.0
  C  C50  1  0.48556000  0.03893000  0.39359000  1.0
  C  C51  1  0.98557000  0.96105000  0.60640000  1.0
  C  C52  1  0.03060000  0.01036000  0.17047000  1.0
  C  C53  1  0.53060000  0.98965000  0.82952000  1.0
  C  C54  1  0.32240000  0.47818000  0.61561000  1.0
  C  C55  1  0.82241000  0.52181000  0.38439000  1.0
  C  C56  1  0.31476000  0.09214000  0.32309000  1.0
  C  C57  1  0.81477000  0.90785000  0.67691000  1.0
  N  N58  1  0.88512000  0.88215000  0.11024000  1.0
  N  N59  1  0.38512000  0.11787000  0.88975000  1.0
  N  N60  1  0.14581000  0.37634000  0.57009000  1.0
  N  N61  1  0.64580000  0.62364000  0.42991000  1.0
  N  N62  1  0.36042000  0.63484000  0.89733000  1.0
  N  N63  1  0.86040000  0.36517000  0.10267000  1.0
  N  N64  1  0.65265000  0.13873000  0.44700000  1.0
  N  N65  1  0.15268000  0.86127000  0.55300000  1.0
  O  O66  1  0.90896000  0.33449000  0.88143000  1.0
  O  O67  1  0.40899000  0.66554000  0.11857000  1.0
  O  O68  1  0.36572000  0.94845000  0.04610000  1.0
  O  O69  1  0.86572000  0.05157000  0.95390000  1.0
  O  O70  1  0.90005000  0.56602000  0.97681000  1.0
  O  O71  1  0.40003000  0.43402000  0.02319000  1.0
  O  O72  1  0.32967000  0.18646000  0.13058000  1.0
  O  O73  1  0.82969000  0.81357000  0.86942000  1.0
  O  O74  1  0.46847000  0.90900000  0.40162000  1.0
  O  O75  1  0.96847000  0.09099000  0.59838000  1.0
  O  O76  1  0.34985000  0.59966000  0.59554000  1.0
  O  O77  1  0.84985000  0.40031000  0.40446000  1.0
