# generated using pymatgen
data_Rb2H12C16Cl4O7
_symmetry_space_group_name_H-M   'P 1'
_cell_length_a   4.30577000
_cell_length_b   13.24870000
_cell_length_c   18.89256501
_cell_angle_alpha   103.36778127
_cell_angle_beta   96.53077863
_cell_angle_gamma   90.04650000
_symmetry_Int_Tables_number   1
_chemical_formula_structural   Rb2H12C16Cl4O7
_chemical_formula_sum   'Rb4 H24 C32 Cl8 O14'
_cell_volume   1041.32837609
_cell_formula_units_Z   2
loop_
 _symmetry_equiv_pos_site_id
 _symmetry_equiv_pos_as_xyz
  1  'x, y, z'
loop_
 _atom_site_type_symbol
 _atom_site_label
 _atom_site_symmetry_multiplicity
 _atom_site_fract_x
 _atom_site_fract_y
 _atom_site_fract_z
 _atom_site_occupancy
  Rb  Rb0  1  0.77590000  0.62955000  0.06911000  1.0
  Rb  Rb1  1  0.70719000  0.87048000  0.93093000  1.0
  Rb  Rb2  1  0.22410000  0.37044000  0.93089000  1.0
  Rb  Rb3  1  0.29281000  0.12952000  0.06907000  1.0
  H  H4  1  0.72882000  0.41711000  0.31339000  1.0
  H  H5  1  0.41507000  0.08278000  0.68634000  1.0
  H  H6  1  0.27118000  0.58289000  0.68661000  1.0
  H  H7  1  0.58493000  0.91722000  0.31367000  1.0
  H  H8  1  0.15558000  0.70686000  0.96227000  1.0
  H  H9  1  0.19321000  0.79329000  0.03792000  1.0
  H  H10  1  0.84442000  0.29314000  0.03773000  1.0
  H  H11  1  0.80680000  0.20671000  0.96208000  1.0
  H  H12  1  0.37574000  0.74322000  0.38744000  1.0
  H  H13  1  0.98894000  0.75708000  0.61262000  1.0
  H  H14  1  0.62425000  0.25678000  0.61255000  1.0
  H  H15  1  0.01107000  0.24292000  0.38738000  1.0
  H  H16  1  0.03434000  0.46291000  0.43464000  1.0
  H  H17  1  0.60039000  0.03707000  0.56519000  1.0
  H  H18  1  0.96566000  0.53709000  0.56536000  1.0
  H  H19  1  0.39961000  0.96294000  0.43482000  1.0
  H  H20  1  0.36264000  0.43903000  0.23699000  1.0
  H  H21  1  0.12590000  0.06093000  0.76298000  1.0
  H  H22  1  0.63736000  0.56097000  0.76301000  1.0
  H  H23  1  0.87410000  0.93907000  0.23702000  1.0
  H  H24  1  0.66427000  0.37477000  0.18718000  1.0
  H  H25  1  0.47762000  0.12530000  0.81265000  1.0
  H  H26  1  0.33574000  0.62522000  0.81282000  1.0
  H  H27  1  0.52238000  0.87470000  0.18735000  1.0
  C  C28  1  0.86626000  0.55517000  0.28034000  1.0
  C  C29  1  0.58603000  0.94495000  0.71955000  1.0
  C  C30  1  0.13374000  0.44483000  0.71966000  1.0
  C  C31  1  0.41397000  0.05506000  0.28045000  1.0
  C  C32  1  0.05366000  0.64699000  0.30295000  1.0
  C  C33  1  0.75087000  0.85320000  0.69700000  1.0
  C  C34  1  0.94635000  0.35301000  0.69705000  1.0
  C  C35  1  0.24914000  0.14680000  0.30300000  1.0
  C  C36  1  0.23105000  0.67239000  0.37135000  1.0
  C  C37  1  0.86034000  0.82785000  0.62865000  1.0
  C  C38  1  0.76895000  0.32761000  0.62865000  1.0
  C  C39  1  0.13967000  0.17215000  0.37135000  1.0
  C  C40  1  0.22093000  0.60611000  0.41875000  1.0
  C  C41  1  0.80308000  0.89407000  0.58120000  1.0
  C  C42  1  0.77906000  0.39389000  0.58124000  1.0
  C  C43  1  0.19692000  0.10593000  0.41880000  1.0
  C  C44  1  0.04153000  0.51447000  0.39761000  1.0
  C  C45  1  0.64455000  0.98559000  0.60227000  1.0
  C  C46  1  0.95847000  0.48553000  0.60239000  1.0
  C  C47  1  0.35545000  0.01441000  0.39773000  1.0
  C  C48  1  0.86706000  0.48919000  0.32879000  1.0
  C  C49  1  0.53833000  0.01083000  0.67103000  1.0
  C  C50  1  0.13294000  0.51081000  0.67120000  1.0
  C  C51  1  0.46167000  0.98918000  0.32897000  1.0
  C  C52  1  0.50945000  0.44164000  0.19344000  1.0
  C  C53  1  0.31642000  0.05841000  0.80649000  1.0
  C  C54  1  0.49056000  0.55836000  0.80656000  1.0
  C  C55  1  0.68358000  0.94159000  0.19351000  1.0
  C  C56  1  0.29203000  0.42998000  0.12215000  1.0
  C  C57  1  0.17074000  0.07003000  0.87784000  1.0
  C  C58  1  0.70796000  0.57002000  0.87785000  1.0
  C  C59  1  0.82927000  0.92997000  0.12216000  1.0
  Cl  Cl60  1  0.06310000  0.73102000  0.24529000  1.0
  Cl  Cl61  1  0.81764000  0.76924000  0.75468000  1.0
  Cl  Cl62  1  0.93691000  0.26898000  0.75471000  1.0
  Cl  Cl63  1  0.18235000  0.23076000  0.24531000  1.0
  Cl  Cl64  1  0.42927000  0.63985000  0.50521000  1.0
  Cl  Cl65  1  0.92497000  0.86028000  0.49477000  1.0
  Cl  Cl66  1  0.57072000  0.36016000  0.49479000  1.0
  Cl  Cl67  1  0.07502000  0.13972000  0.50523000  1.0
  O  O68  1  0.31250000  0.75008000  0.00013000  1.0
  O  O69  1  0.68750000  0.24993000  0.99987000  1.0
  O  O70  1  0.69634000  0.53620000  0.21289000  1.0
  O  O71  1  0.48365000  0.96391000  0.78701000  1.0
  O  O72  1  0.30366000  0.46379000  0.78711000  1.0
  O  O73  1  0.51635000  0.03609000  0.21299000  1.0
  O  O74  1  0.29366000  0.49644000  0.08401000  1.0
  O  O75  1  0.21093000  0.00362000  0.91601000  1.0
  O  O76  1  0.70634000  0.50355000  0.91599000  1.0
  O  O77  1  0.78907000  0.99638000  0.08399000  1.0
  O  O78  1  0.12125000  0.34754000  0.10805000  1.0
  O  O79  1  0.01385000  0.15234000  0.89195000  1.0
  O  O80  1  0.87876000  0.65246000  0.89196000  1.0
  O  O81  1  0.98616000  0.84766000  0.10805000  1.0
