# generated using pymatgen
data_BaH11C9NO6
_symmetry_space_group_name_H-M   'P 1'
_cell_length_a   7.43726000
_cell_length_b   9.10286000
_cell_length_c   9.21705000
_cell_angle_alpha   79.91010000
_cell_angle_beta   75.24680000
_cell_angle_gamma   67.53860000
_symmetry_Int_Tables_number   1
_chemical_formula_structural   BaH11C9NO6
_chemical_formula_sum   'Ba2 H22 C18 N2 O12'
_cell_volume   555.52509845
_cell_formula_units_Z   2
loop_
 _symmetry_equiv_pos_site_id
 _symmetry_equiv_pos_as_xyz
  1  'x, y, z'
loop_
 _atom_site_type_symbol
 _atom_site_label
 _atom_site_symmetry_multiplicity
 _atom_site_fract_x
 _atom_site_fract_y
 _atom_site_fract_z
 _atom_site_occupancy
  Ba  Ba0  1  0.30883000  0.86243000  0.56375000  1.0
  Ba  Ba1  1  0.69117000  0.13757000  0.43625000  1.0
  H  H2  1  0.10894000  0.74394000  0.34741000  1.0
  H  H3  1  0.89106000  0.25606000  0.65258000  1.0
  H  H4  1  0.32486000  0.60051000  0.33679000  1.0
  H  H5  1  0.67514000  0.39948000  0.66321000  1.0
  H  H6  1  0.37861000  0.47303000  0.67474000  1.0
  H  H7  1  0.62140000  0.52697000  0.32526000  1.0
  H  H8  1  0.36096000  0.53636000  0.82788000  1.0
  H  H9  1  0.63904000  0.46364000  0.17212000  1.0
  H  H10  1  0.93689000  0.40434000  0.39674000  1.0
  H  H11  1  0.06311000  0.59567000  0.60326000  1.0
  H  H12  1  0.54854000  0.28316000  0.89388000  1.0
  H  H13  1  0.45145000  0.71683000  0.10612000  1.0
  H  H14  1  0.41642000  0.15050000  0.94358000  1.0
  H  H15  1  0.58357000  0.84950000  0.05642000  1.0
  H  H16  1  0.56847000  0.15024000  0.06240000  1.0
  H  H17  1  0.43153000  0.84976000  0.93760000  1.0
  H  H18  1  0.12726000  0.78182000  0.89117000  1.0
  H  H19  1  0.87275000  0.21818000  0.10883000  1.0
  H  H20  1  0.10443000  0.85712000  0.06427000  1.0
  H  H21  1  0.89557000  0.14287000  0.93574000  1.0
  H  H22  1  0.89289000  0.85254000  0.01587000  1.0
  H  H23  1  0.10712000  0.14745000  0.98412000  1.0
  C  C24  1  0.23828000  0.14749000  0.29843000  1.0
  C  C25  1  0.76172000  0.85251000  0.70157000  1.0
  C  C26  1  0.02543000  0.43230000  0.28886000  1.0
  C  C27  1  0.97456000  0.56770000  0.71113000  1.0
  C  C28  1  0.81489000  0.71677000  0.31672000  1.0
  C  C29  1  0.18511000  0.28323000  0.68328000  1.0
  C  C30  1  0.18779000  0.31169000  0.21713000  1.0
  C  C31  1  0.81220000  0.68831000  0.78288000  1.0
  C  C32  1  0.97855000  0.58961000  0.22625000  1.0
  C  C33  1  0.02144000  0.41040000  0.77375000  1.0
  C  C34  1  0.29645000  0.35172000  0.07723000  1.0
  C  C35  1  0.70354000  0.64828000  0.92276000  1.0
  C  C36  1  0.09321000  0.62198000  0.08632000  1.0
  C  C37  1  0.90679000  0.37801000  0.91368000  1.0
  C  C38  1  0.46768000  0.22793000  0.98929000  1.0
  C  C39  1  0.53232000  0.77206000  0.01072000  1.0
  C  C40  1  0.05231000  0.78749000  0.00973000  1.0
  C  C41  1  0.94769000  0.21251000  0.99027000  1.0
  N  N42  1  0.24523000  0.50359000  0.01429000  1.0
  N  N43  1  0.75478000  0.49641000  0.98571000  1.0
  O  O44  1  0.41353000  0.07815000  0.32385000  1.0
  O  O45  1  0.58647000  0.92185000  0.67615000  1.0
  O  O46  1  0.65656000  0.68947000  0.38043000  1.0
  O  O47  1  0.34344000  0.31054000  0.61958000  1.0
  O  O48  1  0.23003000  0.69387000  0.39026000  1.0
  O  O49  1  0.76997000  0.30613000  0.60974000  1.0
  O  O50  1  0.41706000  0.54890000  0.71589000  1.0
  O  O51  1  0.58294000  0.45110000  0.28411000  1.0
  O  O52  1  0.85238000  0.83904000  0.32837000  1.0
  O  O53  1  0.14762000  0.16095000  0.67163000  1.0
  O  O54  1  0.10039000  0.08983000  0.34501000  1.0
  O  O55  1  0.89960000  0.91017000  0.65498000  1.0
