# generated using pymatgen
data_MgH7C11SN2O3
_symmetry_space_group_name_H-M   'P 1'
_cell_length_a   6.80267000
_cell_length_b   35.91890000
_cell_length_c   35.92350000
_cell_angle_alpha   119.62100000
_cell_angle_beta   93.58010000
_cell_angle_gamma   93.63300000
_symmetry_Int_Tables_number   1
_chemical_formula_structural   MgH7C11SN2O3
_chemical_formula_sum   'Mg6 H42 C66 S6 N12 O18'
_cell_volume   7570.64257957
_cell_formula_units_Z   6
loop_
 _symmetry_equiv_pos_site_id
 _symmetry_equiv_pos_as_xyz
  1  'x, y, z'
loop_
 _atom_site_type_symbol
 _atom_site_label
 _atom_site_symmetry_multiplicity
 _atom_site_fract_x
 _atom_site_fract_y
 _atom_site_fract_z
 _atom_site_occupancy
  Mg  Mg0  1  0.99595000  0.69569000  0.33268000  1.0
  Mg  Mg1  1  0.30017000  0.63694000  0.30432000  1.0
  Mg  Mg2  1  0.66302000  0.66734000  0.36304000  1.0
  Mg  Mg3  1  0.30218000  0.30600000  0.67024000  1.0
  Mg  Mg4  1  0.99622000  0.36436000  0.69406000  1.0
  Mg  Mg5  1  0.63210000  0.32981000  0.63571000  1.0
  H  H6  1  0.44447000  0.60270000  0.07296000  1.0
  H  H7  1  0.84158000  0.47035000  0.39728000  1.0
  H  H8  1  0.37177000  0.92679000  0.52955000  1.0
  H  H9  1  0.92647000  0.56914000  0.04134000  1.0
  H  H10  1  0.35732000  0.47218000  0.43096000  1.0
  H  H11  1  0.88624000  0.95876000  0.52797000  1.0
  H  H12  1  0.78375000  0.50123000  0.97636000  1.0
  H  H13  1  0.28268000  0.47499000  0.49883000  1.0
  H  H14  1  0.80866000  0.02374000  0.52500000  1.0
  H  H15  1  0.84123000  0.42193000  0.92950000  1.0
  H  H16  1  0.41949000  0.50740000  0.57805000  1.0
  H  H17  1  0.91283000  0.07042000  0.49242000  1.0
  H  H18  1  0.25653000  0.45894000  0.90433000  1.0
  H  H19  1  0.79804000  0.44530000  0.54106000  1.0
  H  H20  1  0.35320000  0.09570000  0.55454000  1.0
  H  H21  1  0.04557000  0.37732000  0.79592000  1.0
  H  H22  1  0.66883000  0.41869000  0.62278000  1.0
  H  H23  1  0.25023000  0.20411000  0.58126000  1.0
  H  H24  1  0.75965000  0.42839000  0.81642000  1.0
  H  H25  1  0.33195000  0.38812000  0.57168000  1.0
  H  H26  1  0.94367000  0.18362000  0.61186000  1.0
  H  H27  1  0.57359000  0.45195000  0.88047000  1.0
  H  H28  1  0.12241000  0.42856000  0.54809000  1.0
  H  H29  1  0.69374000  0.11955000  0.57139000  1.0
  H  H30  1  0.36043000  0.45550000  0.95989000  1.0
  H  H31  1  0.90507000  0.50424000  0.54438000  1.0
  H  H32  1  0.40169000  0.03999000  0.49556000  1.0
  H  H33  1  0.50271000  0.52342000  0.02471000  1.0
  H  H34  1  0.97934000  0.50127000  0.47652000  1.0
  H  H35  1  0.47891000  0.97514000  0.49859000  1.0
  H  H36  1  0.03225000  0.56200000  0.09512000  1.0
  H  H37  1  0.46944000  0.53311000  0.43801000  1.0
  H  H38  1  0.93720000  0.90490000  0.46684000  1.0
  H  H39  1  0.25288000  0.63457000  0.20609000  1.0
  H  H40  1  0.61779000  0.57159000  0.36549000  1.0
  H  H41  1  0.04622000  0.79390000  0.42849000  1.0
  H  H42  1  0.53711000  0.58341000  0.18252000  1.0
  H  H43  1  0.95293000  0.59904000  0.41661000  1.0
  H  H44  1  0.35435000  0.81757000  0.40090000  1.0
  H  H45  1  0.72200000  0.56631000  0.11934000  1.0
  H  H46  1  0.15484000  0.55301000  0.43372000  1.0
  H  H47  1  0.60234000  0.88074000  0.44689000  1.0
  C  C48  1  0.25673000  0.61008000  0.11619000  1.0
  C  C49  1  0.64623000  0.50616000  0.38998000  1.0
  C  C50  1  0.14018000  0.88375000  0.49383000  1.0
  C  C51  1  0.22510000  0.55083000  0.03803000  1.0
  C  C52  1  0.67423000  0.48719000  0.44919000  1.0
  C  C53  1  0.18790000  0.96190000  0.51274000  1.0
  C  C54  1  0.02102000  0.54381000  0.02422000  1.0
  C  C55  1  0.47726000  0.48035000  0.45624000  1.0
  C  C56  1  0.99784000  0.97581000  0.51966000  1.0
  C  C57  1  0.94114000  0.50582000  0.98747000  1.0
  C  C58  1  0.43545000  0.48151000  0.49420000  1.0
  C  C59  1  0.95482000  0.01258000  0.51844000  1.0
  C  C60  1  0.06138000  0.47371000  0.96316000  1.0
  C  C61  1  0.58785000  0.48928000  0.52624000  1.0
  C  C62  1  0.09938000  0.03681000  0.51055000  1.0
  C  C63  1  0.03707000  0.41047000  0.88687000  1.0
  C  C64  1  0.62700000  0.47633000  0.58954000  1.0
  C  C65  1  0.15096000  0.11311000  0.52357000  1.0
  C  C66  1  0.29658000  0.41561000  0.84210000  1.0
  C  C67  1  0.88175000  0.42658000  0.58448000  1.0
  C  C68  1  0.45513000  0.15792000  0.57340000  1.0
  C  C69  1  0.20197000  0.38858000  0.80086000  1.0
  C  C70  1  0.81400000  0.41238000  0.61152000  1.0
  C  C71  1  0.40165000  0.19916000  0.58760000  1.0
  C  C72  1  0.30565000  0.37503000  0.76440000  1.0
  C  C73  1  0.93115000  0.38950000  0.62508000  1.0
  C  C74  1  0.54165000  0.23563000  0.61051000  1.0
  C  C75  1  0.51219000  0.38964000  0.77037000  1.0
  C  C76  1  0.12312000  0.38086000  0.61046000  1.0
  C  C77  1  0.74217000  0.22967000  0.61918000  1.0
  C  C78  1  0.60254000  0.41770000  0.81256000  1.0
  C  C79  1  0.18552000  0.39497000  0.58239000  1.0
  C  C80  1  0.79047000  0.18748000  0.60504000  1.0
  C  C81  1  0.49874000  0.43088000  0.84810000  1.0
  C  C82  1  0.06863000  0.41728000  0.56918000  1.0
  C  C83  1  0.65123000  0.15193000  0.58269000  1.0
  C  C84  1  0.63484000  0.37689000  0.73450000  1.0
  C  C85  1  0.25838000  0.35774000  0.62321000  1.0
  C  C86  1  0.90061000  0.26554000  0.64231000  1.0
  C  C87  1  0.26562000  0.48081000  0.97687000  1.0
  C  C88  1  0.78493000  0.49592000  0.51911000  1.0
  C  C89  1  0.28986000  0.02305000  0.50390000  1.0
  C  C90  1  0.34535000  0.51882000  0.01362000  1.0
  C  C91  1  0.82660000  0.49472000  0.48113000  1.0
  C  C92  1  0.33270000  0.98627000  0.50514000  1.0
  C  C93  1  0.00019000  0.59977000  0.15892000  1.0
  C  C94  1  0.39974000  0.55913000  0.40025000  1.0
  C  C95  1  0.84082000  0.84112000  0.44086000  1.0
  C  C96  1  0.09621000  0.62328000  0.20053000  1.0
  C  C97  1  0.47237000  0.57726000  0.37676000  1.0
  C  C98  1  0.89519000  0.79949000  0.42278000  1.0
  C  C99  1  0.99305000  0.63325000  0.23654000  1.0
  C  C100  1  0.35919000  0.60327000  0.36677000  1.0
  C  C101  1  0.75607000  0.76349000  0.39676000  1.0
  C  C102  1  0.78609000  0.61863000  0.22965000  1.0
  C  C103  1  0.16679000  0.61098000  0.38138000  1.0
  C  C104  1  0.55604000  0.77039000  0.38901000  1.0
  C  C105  1  0.69454000  0.59412000  0.18704000  1.0
  C  C106  1  0.09969000  0.59288000  0.40590000  1.0
  C  C107  1  0.50717000  0.81302000  0.40709000  1.0
  C  C108  1  0.79762000  0.58448000  0.15200000  1.0
  C  C109  1  0.21238000  0.56749000  0.41555000  1.0
  C  C110  1  0.64527000  0.84807000  0.43248000  1.0
  C  C111  1  0.66346000  0.62796000  0.26496000  1.0
  C  C112  1  0.03494000  0.63693000  0.37203000  1.0
  C  C113  1  0.39820000  0.73508000  0.36306000  1.0
  S  S114  1  0.38643000  0.65608000  0.15241000  1.0
  S  S115  1  0.72993000  0.49637000  0.34397000  1.0
  S  S116  1  0.23282000  0.84750000  0.50367000  1.0
  S  S117  1  0.91492000  0.36240000  0.85386000  1.0
  S  S118  1  0.55287000  0.49145000  0.63762000  1.0
  S  S119  1  0.06126000  0.14608000  0.50856000  1.0
  N  N120  1  0.31222000  0.58909000  0.07461000  1.0
  N  N121  1  0.72297000  0.48559000  0.41095000  1.0
  N  N122  1  0.23804000  0.92525000  0.51433000  1.0
  N  N123  1  0.97288000  0.43523000  0.92717000  1.0
  N  N124  1  0.53778000  0.49175000  0.56472000  1.0
  N  N125  1  0.04681000  0.07278000  0.50803000  1.0
  N  N126  1  0.19604000  0.43005000  0.87918000  1.0
  N  N127  1  0.76664000  0.44913000  0.56999000  1.0
  N  N128  1  0.31767000  0.12083000  0.55080000  1.0
  N  N129  1  0.09818000  0.58886000  0.12203000  1.0
  N  N130  1  0.50864000  0.53318000  0.41117000  1.0
  N  N131  1  0.97583000  0.87798000  0.46682000  1.0
  O  O132  1  0.48237000  0.61246000  0.25742000  1.0
  O  O133  1  0.86920000  0.64486000  0.38750000  1.0
  O  O134  1  0.22470000  0.74263000  0.35512000  1.0
  O  O135  1  0.74323000  0.65303000  0.30420000  1.0
  O  O136  1  0.08991000  0.65113000  0.34699000  1.0
  O  O137  1  0.43884000  0.69582000  0.34886000  1.0
  O  O138  1  0.09617000  0.65579000  0.27559000  1.0
  O  O139  1  0.43989000  0.61978000  0.34422000  1.0
  O  O140  1  0.82017000  0.72442000  0.38023000  1.0
  O  O141  1  0.81562000  0.39226000  0.74088000  1.0
  O  O142  1  0.42378000  0.34872000  0.60781000  1.0
  O  O143  1  0.07493000  0.25917000  0.65132000  1.0
  O  O144  1  0.55523000  0.34899000  0.69596000  1.0
  O  O145  1  0.20651000  0.34712000  0.65112000  1.0
  O  O146  1  0.85941000  0.30409000  0.65296000  1.0
  O  O147  1  0.20274000  0.34930000  0.72579000  1.0
  O  O148  1  0.85378000  0.37661000  0.65080000  1.0
  O  O149  1  0.47724000  0.27425000  0.62343000  1.0
