# generated using pymatgen
data_CdH9C11O5
_symmetry_space_group_name_H-M   'P 1'
_cell_length_a   8.22794000
_cell_length_b   11.35620000
_cell_length_c   12.23260000
_cell_angle_alpha   83.79700000
_cell_angle_beta   87.48170000
_cell_angle_gamma   78.29150000
_symmetry_Int_Tables_number   1
_chemical_formula_structural   CdH9C11O5
_chemical_formula_sum   'Cd4 H36 C44 O20'
_cell_volume   1112.37165453
_cell_formula_units_Z   4
loop_
 _symmetry_equiv_pos_site_id
 _symmetry_equiv_pos_as_xyz
  1  'x, y, z'
loop_
 _atom_site_type_symbol
 _atom_site_label
 _atom_site_symmetry_multiplicity
 _atom_site_fract_x
 _atom_site_fract_y
 _atom_site_fract_z
 _atom_site_occupancy
  Cd  Cd0  1  0.98713000  0.35019000  0.99249000  1.0
  Cd  Cd1  1  0.01288000  0.64980000  0.00751000  1.0
  Cd  Cd2  1  0.39079000  0.45822000  0.88883000  1.0
  Cd  Cd3  1  0.60922000  0.54178000  0.11118000  1.0
  H  H4  1  0.21491000  0.98328000  0.95493000  1.0
  H  H5  1  0.78508000  0.01672000  0.04508000  1.0
  H  H6  1  0.64912000  0.73353000  0.85294000  1.0
  H  H7  1  0.35090000  0.26648000  0.14707000  1.0
  H  H8  1  0.61476000  0.11817000  0.78088000  1.0
  H  H9  1  0.38525000  0.88182000  0.21913000  1.0
  H  H10  1  0.88061000  0.05574000  0.73754000  1.0
  H  H11  1  0.11939000  0.94426000  0.26246000  1.0
  H  H12  1  0.77453000  0.02272000  0.62323000  1.0
  H  H13  1  0.22545000  0.97727000  0.37678000  1.0
  H  H14  1  0.92136000  0.80171000  0.55361000  1.0
  H  H15  1  0.07864000  0.19829000  0.44639000  1.0
  H  H16  1  0.19404000  0.68843000  0.49285000  1.0
  H  H17  1  0.80595000  0.31156000  0.50716000  1.0
  H  H18  1  0.44126000  0.91966000  0.65242000  1.0
  H  H19  1  0.55873000  0.08034000  0.34758000  1.0
  H  H20  1  0.16898000  0.03002000  0.71759000  1.0
  H  H21  1  0.83101000  0.96997000  0.28241000  1.0
  H  H22  1  0.79470000  0.46968000  0.59231000  1.0
  H  H23  1  0.20529000  0.53032000  0.40768000  1.0
  H  H24  1  0.91955000  0.54886000  0.41826000  1.0
  H  H25  1  0.08044000  0.45115000  0.58174000  1.0
  H  H26  1  0.78410000  0.75031000  0.32564000  1.0
  H  H27  1  0.21590000  0.24969000  0.67434000  1.0
  H  H28  1  0.51884000  0.85882000  0.39886000  1.0
  H  H29  1  0.48115000  0.14119000  0.60115000  1.0
  H  H30  1  0.86803000  0.34697000  0.23422000  1.0
  H  H31  1  0.13198000  0.65302000  0.76579000  1.0
  H  H32  1  0.98135000  0.44317000  0.20830000  1.0
  H  H33  1  0.01865000  0.55683000  0.79170000  1.0
  H  H34  1  0.24051000  0.44096000  0.08121000  1.0
  H  H35  1  0.75949000  0.55904000  0.91879000  1.0
  H  H36  1  0.81974000  0.44023000  0.76902000  1.0
  H  H37  1  0.18025000  0.55977000  0.23097000  1.0
  H  H38  1  0.99038000  0.34045000  0.76439000  1.0
  H  H39  1  0.00962000  0.65955000  0.23561000  1.0
  C  C40  1  0.40707000  0.06195000  0.86829000  1.0
  C  C41  1  0.59293000  0.93806000  0.13172000  1.0
  C  C42  1  0.33718000  0.96604000  0.91540000  1.0
  C  C43  1  0.66281000  0.03397000  0.08461000  1.0
  C  C44  1  0.42555000  0.84705000  0.91135000  1.0
  C  C45  1  0.57447000  0.15295000  0.08867000  1.0
  C  C46  1  0.58119000  0.82537000  0.85904000  1.0
  C  C47  1  0.41883000  0.17464000  0.14098000  1.0
  C  C48  1  0.64998000  0.92203000  0.80958000  1.0
  C  C49  1  0.35004000  0.07798000  0.19042000  1.0
  C  C50  1  0.56388000  0.04066000  0.81540000  1.0
  C  C51  1  0.43613000  0.95934000  0.18460000  1.0
  C  C52  1  0.31602000  0.19013000  0.87421000  1.0
  C  C53  1  0.68398000  0.80987000  0.12578000  1.0
  C  C54  1  0.34735000  0.74387000  0.95813000  1.0
  C  C55  1  0.65266000  0.25612000  0.04187000  1.0
  C  C56  1  0.86383000  0.98327000  0.68850000  1.0
  C  C57  1  0.13616000  0.01673000  0.31150000  1.0
  C  C58  1  0.02704000  0.92296000  0.64134000  1.0
  C  C59  1  0.97296000  0.07704000  0.35865000  1.0
  C  C60  1  0.03514000  0.82808000  0.57546000  1.0
  C  C61  1  0.96487000  0.17192000  0.42453000  1.0
  C  C62  1  0.18819000  0.76460000  0.54090000  1.0
  C  C63  1  0.81182000  0.23540000  0.45910000  1.0
  C  C64  1  0.33668000  0.79479000  0.57027000  1.0
  C  C65  1  0.66333000  0.20521000  0.42973000  1.0
  C  C66  1  0.32752000  0.89408000  0.63012000  1.0
  C  C67  1  0.67247000  0.10592000  0.36989000  1.0
  C  C68  1  0.17386000  0.95657000  0.66630000  1.0
  C  C69  1  0.82613000  0.04342000  0.33370000  1.0
  C  C70  1  0.50067000  0.72522000  0.53512000  1.0
  C  C71  1  0.49932000  0.27479000  0.46488000  1.0
  C  C72  1  0.58302000  0.61543000  0.59168000  1.0
  C  C73  1  0.41696000  0.38458000  0.40832000  1.0
  C  C74  1  0.73431000  0.55488000  0.54883000  1.0
  C  C75  1  0.26567000  0.44513000  0.45117000  1.0
  C  C76  1  0.80591000  0.60014000  0.45252000  1.0
  C  C77  1  0.19407000  0.39986000  0.54747000  1.0
  C  C78  1  0.72917000  0.71131000  0.39998000  1.0
  C  C79  1  0.27082000  0.28869000  0.60001000  1.0
  C  C80  1  0.57884000  0.77269000  0.44124000  1.0
  C  C81  1  0.42114000  0.22732000  0.55875000  1.0
  C  C82  1  0.51836000  0.55991000  0.69686000  1.0
  C  C83  1  0.48164000  0.44010000  0.30314000  1.0
  O  O84  1  0.16351000  0.20632000  0.90505000  1.0
  O  O85  1  0.83650000  0.79368000  0.09495000  1.0
  O  O86  1  0.39898000  0.27170000  0.84440000  1.0
  O  O87  1  0.60101000  0.72830000  0.15560000  1.0
  O  O88  1  0.19636000  0.77026000  0.98869000  1.0
  O  O89  1  0.80364000  0.22974000  0.01131000  1.0
  O  O90  1  0.43582000  0.63585000  0.96256000  1.0
  O  O91  1  0.56420000  0.36415000  0.03743000  1.0
  O  O92  1  0.79990000  0.89062000  0.75735000  1.0
  O  O93  1  0.20012000  0.10939000  0.24266000  1.0
  O  O94  1  0.36402000  0.58116000  0.72106000  1.0
  O  O95  1  0.63598000  0.41884000  0.27893000  1.0
  O  O96  1  0.62152000  0.48889000  0.76286000  1.0
  O  O97  1  0.37847000  0.51111000  0.23714000  1.0
  O  O98  1  0.18322000  0.46064000  0.01151000  1.0
  O  O99  1  0.81679000  0.53935000  0.98849000  1.0
  O  O100  1  0.96130000  0.36564000  0.18779000  1.0
  O  O101  1  0.03870000  0.63435000  0.81221000  1.0
  O  O102  1  0.94167000  0.41976000  0.78697000  1.0
  O  O103  1  0.05833000  0.58024000  0.21303000  1.0
