# generated using pymatgen
data_LiH4C6NO2
_symmetry_space_group_name_H-M   'P 1'
_cell_length_a   10.39080000
_cell_length_b   10.74280000
_cell_length_c   14.84130000
_cell_angle_alpha   89.99840000
_cell_angle_beta   89.99980000
_cell_angle_gamma   71.16200000
_symmetry_Int_Tables_number   1
_chemical_formula_structural   LiH4C6NO2
_chemical_formula_sum   'Li8 H32 C48 N8 O16'
_cell_volume   1567.93970543
_cell_formula_units_Z   8
loop_
 _symmetry_equiv_pos_site_id
 _symmetry_equiv_pos_as_xyz
  1  'x, y, z'
loop_
 _atom_site_type_symbol
 _atom_site_label
 _atom_site_symmetry_multiplicity
 _atom_site_fract_x
 _atom_site_fract_y
 _atom_site_fract_z
 _atom_site_occupancy
  Li  Li0  1  0.74416000  0.53127000  0.51743000  1.0
  Li  Li1  1  0.25584000  0.46872000  0.01744000  1.0
  Li  Li2  1  0.75316000  0.72108000  0.64136000  1.0
  Li  Li3  1  0.24684000  0.27891000  0.14136000  1.0
  Li  Li4  1  0.73962000  0.02906000  0.51217000  1.0
  Li  Li5  1  0.26037000  0.97094000  0.01216000  1.0
  Li  Li6  1  0.76379000  0.21616000  0.63919000  1.0
  Li  Li7  1  0.23622000  0.78384000  0.13920000  1.0
  H  H8  1  0.07090000  0.31290000  0.97092000  1.0
  H  H9  1  0.92909000  0.68710000  0.47091000  1.0
  H  H10  1  0.42025000  0.93000000  0.18769000  1.0
  H  H11  1  0.57973000  0.07000000  0.68768000  1.0
  H  H12  1  0.56090000  0.95732000  0.31911000  1.0
  H  H13  1  0.43909000  0.04269000  0.81911000  1.0
  H  H14  1  0.91166000  0.81901000  0.84391000  1.0
  H  H15  1  0.08834000  0.18099000  0.34392000  1.0
  H  H16  1  0.05139000  0.85346000  0.97362000  1.0
  H  H17  1  0.94859000  0.14655000  0.47361000  1.0
  H  H18  1  0.06102000  0.08144000  0.68779000  1.0
  H  H19  1  0.93901000  0.91855000  0.18780000  1.0
  H  H20  1  0.46320000  0.39170000  0.17583000  1.0
  H  H21  1  0.53681000  0.60830000  0.67584000  1.0
  H  H22  1  0.20494000  0.09511000  0.82071000  1.0
  H  H23  1  0.79506000  0.90488000  0.32071000  1.0
  H  H24  1  0.30688000  0.15111000  0.32743000  1.0
  H  H25  1  0.69313000  0.84889000  0.82743000  1.0
  H  H26  1  0.44854000  0.16535000  0.46165000  1.0
  H  H27  1  0.55145000  0.83465000  0.96165000  1.0
  H  H28  1  0.60109000  0.42694000  0.30689000  1.0
  H  H29  1  0.39891000  0.57305000  0.80690000  1.0
  H  H30  1  0.93292000  0.28581000  0.83767000  1.0
  H  H31  1  0.06707000  0.71420000  0.33766000  1.0
  H  H32  1  0.32315000  0.63047000  0.31662000  1.0
  H  H33  1  0.67684000  0.36954000  0.81659000  1.0
  H  H34  1  0.16140000  0.61988000  0.84794000  1.0
  H  H35  1  0.83861000  0.38011000  0.34796000  1.0
  H  H36  1  0.46880000  0.63838000  0.44970000  1.0
  H  H37  1  0.53119000  0.36164000  0.94968000  1.0
  H  H38  1  0.01857000  0.61245000  0.71305000  1.0
  H  H39  1  0.98145000  0.38754000  0.21307000  1.0
  C  C40  1  0.05793000  0.37686000  0.91203000  1.0
  C  C41  1  0.94207000  0.62314000  0.41203000  1.0
  C  C42  1  0.43233000  0.86778000  0.24744000  1.0
  C  C43  1  0.56767000  0.13223000  0.74743000  1.0
  C  C44  1  0.51123000  0.88238000  0.31987000  1.0
  C  C45  1  0.48877000  0.11763000  0.81987000  1.0
  C  C46  1  0.97581000  0.94728000  0.75533000  1.0
  C  C47  1  0.02419000  0.05272000  0.25533000  1.0
  C  C48  1  0.89052000  0.92970000  0.67661000  1.0
  C  C49  1  0.10949000  0.07031000  0.17662000  1.0
  C  C50  1  0.53464000  0.29927000  0.39471000  1.0
  C  C51  1  0.46537000  0.70072000  0.89472000  1.0
  C  C52  1  0.97354000  0.88316000  0.83709000  1.0
  C  C53  1  0.02646000  0.11684000  0.33709000  1.0
  C  C54  1  0.05220000  0.90112000  0.90867000  1.0
  C  C55  1  0.94778000  0.09889000  0.40867000  1.0
  C  C56  1  0.05890000  0.02663000  0.74918000  1.0
  C  C57  1  0.94112000  0.97336000  0.24918000  1.0
  C  C58  1  0.61755000  0.31700000  0.47450000  1.0
  C  C59  1  0.38245000  0.68298000  0.97451000  1.0
  C  C60  1  0.46131000  0.34466000  0.24088000  1.0
  C  C61  1  0.53870000  0.65534000  0.74089000  1.0
  C  C62  1  0.60737000  0.81819000  0.47566000  1.0
  C  C63  1  0.39263000  0.18182000  0.97565000  1.0
  C  C64  1  0.13735000  0.03572000  0.82357000  1.0
  C  C65  1  0.86265000  0.96428000  0.32357000  1.0
  C  C66  1  0.37454000  0.21046000  0.32533000  1.0
  C  C67  1  0.62546000  0.78955000  0.82533000  1.0
  C  C68  1  0.45164000  0.21983000  0.40026000  1.0
  C  C69  1  0.54835000  0.78017000  0.90026000  1.0
  C  C70  1  0.53867000  0.36315000  0.31309000  1.0
  C  C71  1  0.46133000  0.63685000  0.81310000  1.0
  C  C72  1  0.98080000  0.36219000  0.83856000  1.0
  C  C73  1  0.01920000  0.63781000  0.33856000  1.0
  C  C74  1  0.52450000  0.80114000  0.39535000  1.0
  C  C75  1  0.47550000  0.19887000  0.89535000  1.0
  C  C76  1  0.37857000  0.70119000  0.31925000  1.0
  C  C77  1  0.62142000  0.29881000  0.81923000  1.0
  C  C78  1  0.88664000  0.42984000  0.68249000  1.0
  C  C79  1  0.11335000  0.57016000  0.18249000  1.0
  C  C80  1  0.10792000  0.54778000  0.84339000  1.0
  C  C81  1  0.89210000  0.45221000  0.34341000  1.0
  C  C82  1  0.96664000  0.44594000  0.76439000  1.0
  C  C83  1  0.03336000  0.55406000  0.26439000  1.0
  C  C84  1  0.45797000  0.70687000  0.39396000  1.0
  C  C85  1  0.54203000  0.29313000  0.89394000  1.0
  C  C86  1  0.03031000  0.54230000  0.76786000  1.0
  C  C87  1  0.96971000  0.45769000  0.26788000  1.0
  N  N88  1  0.37881000  0.27074000  0.24660000  1.0
  N  N89  1  0.62120000  0.72926000  0.74661000  1.0
  N  N90  1  0.13454000  0.97514000  0.90245000  1.0
  N  N91  1  0.86544000  0.02487000  0.40245000  1.0
  N  N92  1  0.36480000  0.77985000  0.24694000  1.0
  N  N93  1  0.63518000  0.22016000  0.74693000  1.0
  N  N94  1  0.12256000  0.46706000  0.91458000  1.0
  N  N95  1  0.87745000  0.53293000  0.41459000  1.0
  O  O96  1  0.85253000  0.02341000  0.61970000  1.0
  O  O97  1  0.14750000  0.97660000  0.11971000  1.0
  O  O98  1  0.65555000  0.22230000  0.53061000  1.0
  O  O99  1  0.34444000  0.77770000  0.03061000  1.0
  O  O100  1  0.63011000  0.92630000  0.48202000  1.0
  O  O101  1  0.36986000  0.07371000  0.98200000  1.0
  O  O102  1  0.87129000  0.31908000  0.67151000  1.0
  O  O103  1  0.12870000  0.68092000  0.17150000  1.0
  O  O104  1  0.64813000  0.72254000  0.53091000  1.0
  O  O105  1  0.35188000  0.27746000  0.03091000  1.0
  O  O106  1  0.86242000  0.82402000  0.67358000  1.0
  O  O107  1  0.13759000  0.17598000  0.17358000  1.0
  O  O108  1  0.84109000  0.52890000  0.63054000  1.0
  O  O109  1  0.15891000  0.47110000  0.13054000  1.0
  O  O110  1  0.64353000  0.42359000  0.47925000  1.0
  O  O111  1  0.35649000  0.57639000  0.97926000  1.0
