# generated using pymatgen
data_Cd2H8C14N2O9
_symmetry_space_group_name_H-M   'P 1'
_cell_length_a   7.09006000
_cell_length_b   14.09360000
_cell_length_c   14.85410000
_cell_angle_alpha   90.99290000
_cell_angle_beta   89.99990000
_cell_angle_gamma   90.00000000
_symmetry_Int_Tables_number   1
_chemical_formula_structural   Cd2H8C14N2O9
_chemical_formula_sum   'Cd8 H32 C56 N8 O36'
_cell_volume   1484.06519850
_cell_formula_units_Z   4
loop_
 _symmetry_equiv_pos_site_id
 _symmetry_equiv_pos_as_xyz
  1  'x, y, z'
loop_
 _atom_site_type_symbol
 _atom_site_label
 _atom_site_symmetry_multiplicity
 _atom_site_fract_x
 _atom_site_fract_y
 _atom_site_fract_z
 _atom_site_occupancy
  Cd  Cd0  1  0.36432000  0.67320000  0.75333000  1.0
  Cd  Cd1  1  0.86432000  0.82680000  0.24667000  1.0
  Cd  Cd2  1  0.63568000  0.32680000  0.24667000  1.0
  Cd  Cd3  1  0.13568000  0.17320000  0.75333000  1.0
  Cd  Cd4  1  0.38750000  0.04747000  0.25407000  1.0
  Cd  Cd5  1  0.88750000  0.45253000  0.74593000  1.0
  Cd  Cd6  1  0.61250000  0.95253000  0.74593000  1.0
  Cd  Cd7  1  0.11250000  0.54747000  0.25407000  1.0
  H  H8  1  0.20350000  0.62518000  0.44527000  1.0
  H  H9  1  0.70350000  0.87481000  0.55473000  1.0
  H  H10  1  0.79650000  0.37481000  0.55473000  1.0
  H  H11  1  0.29650000  0.12518000  0.44527000  1.0
  H  H12  1  0.51638000  0.58694000  0.46671000  1.0
  H  H13  1  0.01638000  0.91306000  0.53329000  1.0
  H  H14  1  0.48362000  0.41306000  0.53329000  1.0
  H  H15  1  0.98362000  0.08694000  0.46671000  1.0
  H  H16  1  0.68835000  0.56760000  0.32208000  1.0
  H  H17  1  0.18836000  0.93240000  0.67792000  1.0
  H  H18  1  0.31164000  0.43240000  0.67792000  1.0
  H  H19  1  0.81164000  0.06760000  0.32208000  1.0
  H  H20  1  0.22850000  0.09804000  0.06340000  1.0
  H  H21  1  0.72849000  0.40196000  0.93660000  1.0
  H  H22  1  0.77150000  0.90196000  0.93660000  1.0
  H  H23  1  0.27151000  0.59804000  0.06340000  1.0
  H  H24  1  0.38537000  0.76017000  0.02155000  1.0
  H  H25  1  0.88537000  0.73983000  0.97845000  1.0
  H  H26  1  0.61464000  0.23984000  0.97845000  1.0
  H  H27  1  0.11463000  0.26017000  0.02155000  1.0
  H  H28  1  0.40908000  0.84347000  0.17115000  1.0
  H  H29  1  0.90907000  0.65653000  0.82885000  1.0
  H  H30  1  0.59092000  0.15653000  0.82885000  1.0
  H  H31  1  0.09092000  0.34347000  0.17115000  1.0
  H  H32  1  0.21696000  0.22185000  0.29340000  1.0
  H  H33  1  0.71696000  0.27815000  0.70660000  1.0
  H  H34  1  0.78303000  0.77815000  0.70660000  1.0
  H  H35  1  0.28304000  0.72185000  0.29340000  1.0
  H  H36  1  0.05527000  0.17463000  0.23109000  1.0
  H  H37  1  0.55527000  0.32537000  0.76891000  1.0
  H  H38  1  0.94473000  0.82537000  0.76891000  1.0
  H  H39  1  0.44473000  0.67463000  0.23109000  1.0
  C  C40  1  0.05167000  0.61695000  0.45273000  1.0
  C  C41  1  0.55167000  0.88305000  0.54727000  1.0
  C  C42  1  0.94833000  0.38305000  0.54727000  1.0
  C  C43  1  0.44833000  0.11695000  0.45273000  1.0
  C  C44  1  0.96737000  0.62642000  0.53711000  1.0
  C  C45  1  0.46737000  0.87358000  0.46289000  1.0
  C  C46  1  0.03263000  0.37358000  0.46289000  1.0
  C  C47  1  0.53263000  0.12642000  0.53711000  1.0
  C  C48  1  0.77176000  0.61376000  0.54380000  1.0
  C  C49  1  0.27177000  0.88624000  0.45620000  1.0
  C  C50  1  0.22823000  0.38624000  0.45620000  1.0
  C  C51  1  0.72824000  0.11376000  0.54380000  1.0
  C  C52  1  0.66870000  0.59578000  0.46520000  1.0
  C  C53  1  0.16870000  0.90422000  0.53480000  1.0
  C  C54  1  0.33130000  0.40422000  0.53480000  1.0
  C  C55  1  0.83130000  0.09578000  0.46520000  1.0
  C  C56  1  0.76369000  0.58553000  0.38392000  1.0
  C  C57  1  0.26370000  0.91447000  0.61608000  1.0
  C  C58  1  0.23630000  0.41447000  0.61608000  1.0
  C  C59  1  0.73631000  0.08553000  0.38392000  1.0
  C  C60  1  0.08445000  0.64255000  0.61958000  1.0
  C  C61  1  0.58445000  0.85744000  0.38042000  1.0
  C  C62  1  0.91555000  0.35744000  0.38042000  1.0
  C  C63  1  0.41556000  0.14256000  0.61958000  1.0
  C  C64  1  0.67264000  0.61481000  0.63318000  1.0
  C  C65  1  0.17264000  0.88519000  0.36682000  1.0
  C  C66  1  0.32736000  0.38519000  0.36682000  1.0
  C  C67  1  0.82737000  0.11481000  0.63318000  1.0
  C  C68  1  0.25973000  0.02299000  0.05228000  1.0
  C  C69  1  0.75973000  0.47701000  0.94772000  1.0
  C  C70  1  0.74027000  0.97701000  0.94772000  1.0
  C  C71  1  0.24027000  0.52299000  0.05228000  1.0
  C  C72  1  0.24376000  0.98262000  0.96617000  1.0
  C  C73  1  0.74376000  0.51738000  0.03383000  1.0
  C  C74  1  0.75624000  0.01738000  0.03383000  1.0
  C  C75  1  0.25624000  0.48262000  0.96617000  1.0
  C  C76  1  0.28977000  0.88648000  0.95401000  1.0
  C  C77  1  0.78977000  0.61352000  0.04599000  1.0
  C  C78  1  0.71023000  0.11352000  0.04599000  1.0
  C  C79  1  0.21023000  0.38648000  0.95401000  1.0
  C  C80  1  0.34657000  0.83469000  0.02877000  1.0
  C  C81  1  0.84657000  0.66531000  0.97123000  1.0
  C  C82  1  0.65343000  0.16531000  0.97123000  1.0
  C  C83  1  0.15343000  0.33469000  0.02877000  1.0
  C  C84  1  0.35949000  0.88031000  0.11196000  1.0
  C  C85  1  0.85949000  0.61969000  0.88804000  1.0
  C  C86  1  0.64051000  0.11970000  0.88804000  1.0
  C  C87  1  0.14051000  0.38031000  0.11196000  1.0
  C  C88  1  0.19350000  0.04245000  0.88754000  1.0
  C  C89  1  0.69350000  0.45755000  0.11246000  1.0
  C  C90  1  0.80650000  0.95755000  0.11246000  1.0
  C  C91  1  0.30650000  0.54245000  0.88754000  1.0
  C  C92  1  0.28192000  0.83488000  0.86469000  1.0
  C  C93  1  0.78192000  0.66512000  0.13531000  1.0
  C  C94  1  0.71808000  0.16512000  0.13531000  1.0
  C  C95  1  0.21808000  0.33488000  0.86469000  1.0
  N  N96  1  0.31856000  0.97335000  0.12343000  1.0
  N  N97  1  0.81856000  0.52665000  0.87656000  1.0
  N  N98  1  0.68144000  0.02665000  0.87656000  1.0
  N  N99  1  0.18144000  0.47335000  0.12344000  1.0
  N  N100  1  0.95299000  0.59409000  0.37827000  1.0
  N  N101  1  0.45299000  0.90591000  0.62173000  1.0
  N  N102  1  0.04701000  0.40591000  0.62173000  1.0
  N  N103  1  0.54701000  0.09409000  0.37827000  1.0
  O  O104  1  0.63149000  0.69559000  0.66846000  1.0
  O  O105  1  0.13148000  0.80441000  0.33154000  1.0
  O  O106  1  0.36852000  0.30441000  0.33154000  1.0
  O  O107  1  0.86852000  0.19559000  0.66846000  1.0
  O  O108  1  0.62450000  0.53594000  0.66461000  1.0
  O  O109  1  0.12449000  0.96406000  0.33539000  1.0
  O  O110  1  0.37551000  0.46406000  0.33539000  1.0
  O  O111  1  0.87551000  0.03594000  0.66461000  1.0
  O  O112  1  0.01613000  0.61961000  0.69532000  1.0
  O  O113  1  0.51613000  0.88039000  0.30468000  1.0
  O  O114  1  0.98387000  0.38039000  0.30468000  1.0
  O  O115  1  0.48387000  0.11961000  0.69532000  1.0
  O  O116  1  0.24876000  0.67755000  0.60992000  1.0
  O  O117  1  0.74876000  0.82245000  0.39008000  1.0
  O  O118  1  0.75124000  0.32245000  0.39008000  1.0
  O  O119  1  0.25124000  0.17755000  0.60992000  1.0
  O  O120  1  0.12915000  0.79584000  0.84163000  1.0
  O  O121  1  0.62915000  0.70416000  0.15837000  1.0
  O  O122  1  0.87085000  0.20416000  0.15837000  1.0
  O  O123  1  0.37085000  0.29584000  0.84163000  1.0
  O  O124  1  0.43916000  0.82264000  0.82316000  1.0
  O  O125  1  0.93916000  0.67736000  0.17684000  1.0
  O  O126  1  0.56084000  0.17736000  0.17684000  1.0
  O  O127  1  0.06084000  0.32264000  0.82316000  1.0
  O  O128  1  0.22962000  0.00981000  0.80919000  1.0
  O  O129  1  0.72962000  0.49019000  0.19081000  1.0
  O  O130  1  0.77038000  0.99019000  0.19081000  1.0
  O  O131  1  0.27038000  0.50981000  0.80919000  1.0
  O  O132  1  0.12183000  0.12440000  0.90216000  1.0
  O  O133  1  0.62183000  0.37560000  0.09784000  1.0
  O  O134  1  0.87816000  0.87560000  0.09784000  1.0
  O  O135  1  0.37816000  0.62440000  0.90216000  1.0
  O  O136  1  0.15678000  0.16095000  0.27459000  1.0
  O  O137  1  0.65678000  0.33905000  0.72541000  1.0
  O  O138  1  0.84322000  0.83905000  0.72541000  1.0
  O  O139  1  0.34322000  0.66095000  0.27459000  1.0
