# generated using pymatgen
data_CuH7C7NCl
_symmetry_space_group_name_H-M   'P 1'
_cell_length_a   7.84142000
_cell_length_b   9.36731000
_cell_length_c   10.62050000
_cell_angle_alpha   90.00000000
_cell_angle_beta   108.54800000
_cell_angle_gamma   89.99960000
_symmetry_Int_Tables_number   1
_chemical_formula_structural   CuH7C7NCl
_chemical_formula_sum   'Cu4 H28 C28 N4 Cl4'
_cell_volume   739.58696718
_cell_formula_units_Z   4
loop_
 _symmetry_equiv_pos_site_id
 _symmetry_equiv_pos_as_xyz
  1  'x, y, z'
loop_
 _atom_site_type_symbol
 _atom_site_label
 _atom_site_symmetry_multiplicity
 _atom_site_fract_x
 _atom_site_fract_y
 _atom_site_fract_z
 _atom_site_occupancy
  Cu  Cu0  1  0.15015000  0.12207000  0.07277000  1.0
  Cu  Cu1  1  0.15014000  0.37793000  0.57277000  1.0
  Cu  Cu2  1  0.84985000  0.87793000  0.92723000  1.0
  Cu  Cu3  1  0.84986000  0.62207000  0.42723000  1.0
  H  H4  1  0.98990000  0.23820000  0.36082000  1.0
  H  H5  1  0.98991000  0.26180000  0.86082000  1.0
  H  H6  1  0.01009000  0.76180000  0.63918000  1.0
  H  H7  1  0.01009000  0.73820000  0.13918000  1.0
  H  H8  1  0.01939000  0.12770000  0.51012000  1.0
  H  H9  1  0.01940000  0.37231000  0.01013000  1.0
  H  H10  1  0.98061000  0.87231000  0.48988000  1.0
  H  H11  1  0.98060000  0.62769000  0.98987000  1.0
  H  H12  1  0.31660000  0.27466000  0.41973000  1.0
  H  H13  1  0.31661000  0.22533000  0.91973000  1.0
  H  H14  1  0.68340000  0.72534000  0.58027000  1.0
  H  H15  1  0.68340000  0.77467000  0.08027000  1.0
  H  H16  1  0.37640000  0.79593000  0.46990000  1.0
  H  H17  1  0.37639000  0.70408000  0.96990000  1.0
  H  H18  1  0.62360000  0.20407000  0.53009000  1.0
  H  H19  1  0.62361000  0.29592000  0.03010000  1.0
  H  H20  1  0.15284000  0.93680000  0.29500000  1.0
  H  H21  1  0.15284000  0.56319000  0.79500000  1.0
  H  H22  1  0.84715000  0.06319000  0.70500000  1.0
  H  H23  1  0.84716000  0.43681000  0.20500000  1.0
  H  H24  1  0.54374000  0.07138000  0.13447000  1.0
  H  H25  1  0.54374000  0.42862000  0.63447000  1.0
  H  H26  1  0.45626000  0.92862000  0.86553000  1.0
  H  H27  1  0.45626000  0.57138000  0.36553000  1.0
  H  H28  1  0.78047000  0.94102000  0.29888000  1.0
  H  H29  1  0.78047000  0.55898000  0.79887000  1.0
  H  H30  1  0.21953000  0.05898000  0.70112000  1.0
  H  H31  1  0.21953000  0.44102000  0.20113000  1.0
  C  C32  1  0.07772000  0.20413000  0.45783000  1.0
  C  C33  1  0.07773000  0.29587000  0.95784000  1.0
  C  C34  1  0.92228000  0.79587000  0.54217000  1.0
  C  C35  1  0.92227000  0.70413000  0.04216000  1.0
  C  C36  1  0.26384000  0.22027000  0.49061000  1.0
  C  C37  1  0.26385000  0.27973000  0.99062000  1.0
  C  C38  1  0.73616000  0.77973000  0.50939000  1.0
  C  C39  1  0.73615000  0.72027000  0.00938000  1.0
  C  C40  1  0.60188000  0.85693000  0.40348000  1.0
  C  C41  1  0.60188000  0.64307000  0.90347000  1.0
  C  C42  1  0.39811000  0.14306000  0.59652000  1.0
  C  C43  1  0.39812000  0.35693000  0.09653000  1.0
  C  C44  1  0.42032000  0.85626000  0.39793000  1.0
  C  C45  1  0.42031000  0.64374000  0.89792000  1.0
  C  C46  1  0.57968000  0.14374000  0.60207000  1.0
  C  C47  1  0.57969000  0.35626000  0.10207000  1.0
  C  C48  1  0.29415000  0.93391000  0.30062000  1.0
  C  C49  1  0.29415000  0.56609000  0.80062000  1.0
  C  C50  1  0.70585000  0.06609000  0.69938000  1.0
  C  C51  1  0.70586000  0.43391000  0.19938000  1.0
  C  C52  1  0.51068000  0.01021000  0.21071000  1.0
  C  C53  1  0.51068000  0.48979000  0.71070000  1.0
  C  C54  1  0.48931000  0.98979000  0.78929000  1.0
  C  C55  1  0.48932000  0.51021000  0.28930000  1.0
  C  C56  1  0.64434000  0.93591000  0.30474000  1.0
  C  C57  1  0.64434000  0.56409000  0.80473000  1.0
  C  C58  1  0.35565000  0.06409000  0.69526000  1.0
  C  C59  1  0.35566000  0.43591000  0.19526000  1.0
  N  N60  1  0.33691000  0.01161000  0.20790000  1.0
  N  N61  1  0.33691000  0.48839000  0.70790000  1.0
  N  N62  1  0.66309000  0.98839000  0.79210000  1.0
  N  N63  1  0.66310000  0.51161000  0.29210000  1.0
  Cl  Cl64  1  0.89202000  0.07640000  0.11605000  1.0
  Cl  Cl65  1  0.89202000  0.42360000  0.61605000  1.0
  Cl  Cl66  1  0.10798000  0.92361000  0.88395000  1.0
  Cl  Cl67  1  0.10798000  0.57640000  0.38395000  1.0
