# generated using pymatgen
data_TbH14C20N5O7
_symmetry_space_group_name_H-M   'P 1'
_cell_length_a   9.88017000
_cell_length_b   11.87910000
_cell_length_c   11.87900000
_cell_angle_alpha   65.31380000
_cell_angle_beta   71.41580000
_cell_angle_gamma   71.41570000
_symmetry_Int_Tables_number   1
_chemical_formula_structural   TbH14C20N5O7
_chemical_formula_sum   'Tb2 H28 C40 N10 O14'
_cell_volume   1172.52242764
_cell_formula_units_Z   2
loop_
 _symmetry_equiv_pos_site_id
 _symmetry_equiv_pos_as_xyz
  1  'x, y, z'
loop_
 _atom_site_type_symbol
 _atom_site_label
 _atom_site_symmetry_multiplicity
 _atom_site_fract_x
 _atom_site_fract_y
 _atom_site_fract_z
 _atom_site_occupancy
  Tb  Tb0  1  0.25000000  0.93790000  0.06210000  1.0
  Tb  Tb1  1  0.75000000  0.06210000  0.93790000  1.0
  H  H2  1  0.17446000  0.07472000  0.33767000  1.0
  H  H3  1  0.29559000  0.20748000  0.57188000  1.0
  H  H4  1  0.54742000  0.19398000  0.44074000  1.0
  H  H5  1  0.60999000  0.13085000  0.25049000  1.0
  H  H6  1  0.92038000  0.20778000  0.40571000  1.0
  H  H7  1  0.70656000  0.20675000  0.62256000  1.0
  H  H8  1  0.09720000  0.11258000  0.72380000  1.0
  H  H9  1  0.32554000  0.66233000  0.92528000  1.0
  H  H10  1  0.20440000  0.42812000  0.79253000  1.0
  H  H11  1  0.95258000  0.55925000  0.80602000  1.0
  H  H12  1  0.89001000  0.74950000  0.86915000  1.0
  H  H13  1  0.57962000  0.59429000  0.79222000  1.0
  H  H14  1  0.79345000  0.37745000  0.79324000  1.0
  H  H15  1  0.40281000  0.27619000  0.88742000  1.0
  H  H16  1  0.82554000  0.92529000  0.66233000  1.0
  H  H17  1  0.70440000  0.79253000  0.42812000  1.0
  H  H18  1  0.45258000  0.80602000  0.55926000  1.0
  H  H19  1  0.39001000  0.86915000  0.74951000  1.0
  H  H20  1  0.07961000  0.79222000  0.59429000  1.0
  H  H21  1  0.29344000  0.79324000  0.37745000  1.0
  H  H22  1  0.90280000  0.88742000  0.27619000  1.0
  H  H23  1  0.67446000  0.33767000  0.07472000  1.0
  H  H24  1  0.79560000  0.57188000  0.20748000  1.0
  H  H25  1  0.04742000  0.44075000  0.19398000  1.0
  H  H26  1  0.10999000  0.25050000  0.13085000  1.0
  H  H27  1  0.42038000  0.40570000  0.20778000  1.0
  H  H28  1  0.20656000  0.62255000  0.20676000  1.0
  H  H29  1  0.59720000  0.72380000  0.11258000  1.0
  C  C30  1  0.43406000  0.06030000  0.17074000  1.0
  C  C31  1  0.39522000  0.10063000  0.28274000  1.0
  C  C32  1  0.25434000  0.10375000  0.35945000  1.0
  C  C33  1  0.21643000  0.14318000  0.46363000  1.0
  C  C34  1  0.32395000  0.17497000  0.49228000  1.0
  C  C35  1  0.46521000  0.16934000  0.41710000  1.0
  C  C36  1  0.50088000  0.13421000  0.31129000  1.0
  C  C37  1  0.06594000  0.15378000  0.53780000  1.0
  C  C38  1  0.93376000  0.18514000  0.50038000  1.0
  C  C39  1  0.82442000  0.18686000  0.60933000  1.0
  C  C40  1  0.06594000  0.82926000  0.93969000  1.0
  C  C41  1  0.10477000  0.71725000  0.89937000  1.0
  C  C42  1  0.24566000  0.64055000  0.89625000  1.0
  C  C43  1  0.28357000  0.53637000  0.85682000  1.0
  C  C44  1  0.17605000  0.50771000  0.82504000  1.0
  C  C45  1  0.03478000  0.58290000  0.83067000  1.0
  C  C46  1  0.99912000  0.68871000  0.86579000  1.0
  C  C47  1  0.43406000  0.46220000  0.84623000  1.0
  C  C48  1  0.56624000  0.49962000  0.81486000  1.0
  C  C49  1  0.67558000  0.39067000  0.81314000  1.0
  C  C50  1  0.56594000  0.93970000  0.82926000  1.0
  C  C51  1  0.60477000  0.89937000  0.71725000  1.0
  C  C52  1  0.74566000  0.89626000  0.64055000  1.0
  C  C53  1  0.78357000  0.85683000  0.53637000  1.0
  C  C54  1  0.67605000  0.82504000  0.50772000  1.0
  C  C55  1  0.53478000  0.83067000  0.58290000  1.0
  C  C56  1  0.49912000  0.86580000  0.68871000  1.0
  C  C57  1  0.93406000  0.84623000  0.46220000  1.0
  C  C58  1  0.06624000  0.81486000  0.49962000  1.0
  C  C59  1  0.17557000  0.81314000  0.39067000  1.0
  C  C60  1  0.93406000  0.17074000  0.06031000  1.0
  C  C61  1  0.89523000  0.28274000  0.10064000  1.0
  C  C62  1  0.75434000  0.35945000  0.10375000  1.0
  C  C63  1  0.71643000  0.46363000  0.14318000  1.0
  C  C64  1  0.82395000  0.49228000  0.17497000  1.0
  C  C65  1  0.96522000  0.41710000  0.16933000  1.0
  C  C66  1  0.00088000  0.31129000  0.13421000  1.0
  C  C67  1  0.56594000  0.53779000  0.15378000  1.0
  C  C68  1  0.43376000  0.50037000  0.18514000  1.0
  C  C69  1  0.32443000  0.60933000  0.18686000  1.0
  N  N70  1  0.88312000  0.15653000  0.70892000  1.0
  N  N71  1  0.02925000  0.13776000  0.66311000  1.0
  N  N72  1  0.61688000  0.29108000  0.84348000  1.0
  N  N73  1  0.47076000  0.33688000  0.86224000  1.0
  N  N74  1  0.11687000  0.84347000  0.29108000  1.0
  N  N75  1  0.97075000  0.86224000  0.33689000  1.0
  N  N76  1  0.38313000  0.70892000  0.15652000  1.0
  N  N77  1  0.52925000  0.66311000  0.13776000  1.0
  N  N78  1  0.25000000  0.17110000  0.82891000  1.0
  N  N79  1  0.75000000  0.82890000  0.17109000  1.0
  O  O80  1  0.35732000  0.99320000  0.16916000  1.0
  O  O81  1  0.54209000  0.09552000  0.08297000  1.0
  O  O82  1  0.19994000  0.07793000  0.84222000  1.0
  O  O83  1  0.14268000  0.83084000  0.00679000  1.0
  O  O84  1  0.95791000  0.91703000  0.90448000  1.0
  O  O85  1  0.30006000  0.15779000  0.92208000  1.0
  O  O86  1  0.64269000  0.00680000  0.83084000  1.0
  O  O87  1  0.45791000  0.90449000  0.91703000  1.0
  O  O88  1  0.80006000  0.92207000  0.15779000  1.0
  O  O89  1  0.85732000  0.16916000  0.99321000  1.0
  O  O90  1  0.04209000  0.08296000  0.09552000  1.0
  O  O91  1  0.69994000  0.84221000  0.07793000  1.0
  O  O92  1  0.25000000  0.26768000  0.73232000  1.0
  O  O93  1  0.75000000  0.73232000  0.26768000  1.0
