# generated using pymatgen
data_FeH24C36S4(N6Cl)2
_symmetry_space_group_name_H-M   'P 1'
_cell_length_a   8.78561000
_cell_length_b   9.15929000
_cell_length_c   13.51960000
_cell_angle_alpha   97.79570000
_cell_angle_beta   107.02900000
_cell_angle_gamma   97.00380000
_symmetry_Int_Tables_number   1
_chemical_formula_structural   FeH24C36S4(N6Cl)2
_chemical_formula_sum   'Fe1 H24 C36 S4 N12 Cl2'
_cell_volume   1015.49271979
_cell_formula_units_Z   1
loop_
 _symmetry_equiv_pos_site_id
 _symmetry_equiv_pos_as_xyz
  1  'x, y, z'
loop_
 _atom_site_type_symbol
 _atom_site_label
 _atom_site_symmetry_multiplicity
 _atom_site_fract_x
 _atom_site_fract_y
 _atom_site_fract_z
 _atom_site_occupancy
  Fe  Fe0  1  0.50586000  0.50003000  0.48851000  1.0
  H  H1  1  0.04064000  0.63466000  0.21465000  1.0
  H  H2  1  0.95118000  0.36501000  0.78333000  1.0
  H  H3  1  0.23123000  0.47631000  0.29863000  1.0
  H  H4  1  0.77077000  0.52356000  0.68903000  1.0
  H  H5  1  0.44594000  0.80857000  0.56152000  1.0
  H  H6  1  0.56656000  0.18298000  0.43044000  1.0
  H  H7  1  0.25312000  0.97829000  0.49004000  1.0
  H  H8  1  0.75338000  0.01461000  0.51073000  1.0
  H  H9  1  0.85441000  0.19745000  0.36420000  1.0
  H  H10  1  0.15088000  0.80398000  0.63850000  1.0
  H  H11  1  0.73459000  0.16088000  0.16775000  1.0
  H  H12  1  0.27168000  0.84297000  0.83524000  1.0
  H  H13  1  0.76847000  0.26283000  0.87727000  1.0
  H  H14  1  0.22376000  0.73639000  0.12424000  1.0
  H  H15  1  0.63352000  0.23833000  0.01482000  1.0
  H  H16  1  0.35990000  0.76283000  0.98696000  1.0
  H  H17  1  0.51656000  0.24805000  0.13518000  1.0
  H  H18  1  0.49753000  0.74879000  0.87592000  1.0
  H  H19  1  0.45938000  0.26385000  0.30319000  1.0
  H  H20  1  0.56006000  0.73213000  0.70672000  1.0
  H  H21  1  0.64539000  0.71736000  0.38784000  1.0
  H  H22  1  0.32781000  0.29367000  0.60585000  1.0
  H  H23  1  0.71049000  0.71972000  0.22066000  1.0
  H  H24  1  0.26286000  0.28808000  0.77542000  1.0
  C  C25  1  0.12686000  0.67713000  0.29244000  1.0
  C  C26  1  0.87027000  0.32079000  0.70411000  1.0
  C  C27  1  0.23402000  0.58833000  0.33847000  1.0
  C  C28  1  0.76835000  0.40979000  0.65236000  1.0
  C  C29  1  0.35028000  0.77282000  0.48671000  1.0
  C  C30  1  0.65849000  0.22143000  0.50651000  1.0
  C  C31  1  0.24512000  0.86715000  0.44626000  1.0
  C  C32  1  0.75960000  0.12703000  0.55197000  1.0
  C  C33  1  0.13159000  0.82027000  0.34594000  1.0
  C  C34  1  0.86839000  0.17650000  0.65358000  1.0
  C  C35  1  0.02165000  0.91785000  0.29669000  1.0
  C  C36  1  0.97874000  0.08048000  0.70499000  1.0
  C  C37  1  0.88310000  0.10929000  0.31302000  1.0
  C  C38  1  0.12099000  0.89147000  0.68952000  1.0
  C  C39  1  0.81633000  0.08959000  0.20425000  1.0
  C  C40  1  0.18772000  0.91227000  0.79833000  1.0
  C  C41  1  0.86212000  0.97439000  0.14568000  1.0
  C  C42  1  0.13975000  0.02649000  0.85642000  1.0
  C  C43  1  0.79627000  0.61339000  0.97285000  1.0
  C  C44  1  0.20161000  0.38626000  0.02955000  1.0
  C  C45  1  0.75560000  0.36163000  0.92742000  1.0
  C  C46  1  0.23865000  0.63819000  0.07450000  1.0
  C  C47  1  0.68235000  0.34833000  0.00487000  1.0
  C  C48  1  0.31265000  0.65260000  0.99735000  1.0
  C  C49  1  0.67845000  0.48035000  0.06999000  1.0
  C  C50  1  0.31800000  0.52104000  0.93307000  1.0
  C  C51  1  0.62719000  0.48253000  0.16408000  1.0
  C  C52  1  0.36920000  0.51961000  0.83818000  1.0
  C  C53  1  0.55421000  0.35432000  0.18992000  1.0
  C  C54  1  0.45371000  0.64586000  0.81784000  1.0
  C  C55  1  0.52205000  0.36106000  0.28456000  1.0
  C  C56  1  0.48854000  0.63816000  0.72348000  1.0
  C  C57  1  0.62002000  0.61583000  0.32964000  1.0
  C  C58  1  0.36350000  0.39110000  0.66886000  1.0
  C  C59  1  0.65638000  0.61599000  0.23687000  1.0
  C  C60  1  0.32669000  0.38904000  0.76187000  1.0
  S  S61  1  0.76681000  0.93861000  0.00716000  1.0
  S  S62  1  0.23603000  0.06338000  0.99484000  1.0
  S  S63  1  0.87759000  0.78561000  0.94509000  1.0
  S  S64  1  0.12319000  0.21372000  0.05747000  1.0
  N  N65  1  0.34714000  0.63443000  0.43432000  1.0
  N  N66  1  0.66229000  0.36251000  0.55426000  1.0
  N  N67  1  0.98312000  0.02254000  0.36036000  1.0
  N  N68  1  0.01932000  0.97663000  0.64189000  1.0
  N  N69  1  0.96640000  0.89095000  0.19026000  1.0
  N  N70  1  0.03356000  0.10826000  0.81145000  1.0
  N  N71  1  0.81646000  0.49485000  0.91104000  1.0
  N  N72  1  0.17953000  0.50460000  0.09057000  1.0
  N  N73  1  0.73257000  0.61491000  0.05037000  1.0
  N  N74  1  0.26552000  0.38615000  0.95200000  1.0
  N  N75  1  0.55656000  0.48929000  0.35704000  1.0
  N  N76  1  0.44191000  0.51403000  0.64917000  1.0
  Cl  Cl77  1  0.70815000  0.70761000  0.57151000  1.0
  Cl  Cl78  1  0.29944000  0.29225000  0.42245000  1.0
