# generated using pymatgen
data_CuH13C11N5O4
_symmetry_space_group_name_H-M   'P 1'
_cell_length_a   7.86168000
_cell_length_b   8.54727000
_cell_length_c   11.22890000
_cell_angle_alpha   69.43160000
_cell_angle_beta   77.38510000
_cell_angle_gamma   66.19960000
_symmetry_Int_Tables_number   1
_chemical_formula_structural   CuH13C11N5O4
_chemical_formula_sum   'Cu2 H26 C22 N10 O8'
_cell_volume   643.76875242
_cell_formula_units_Z   2
loop_
 _symmetry_equiv_pos_site_id
 _symmetry_equiv_pos_as_xyz
  1  'x, y, z'
loop_
 _atom_site_type_symbol
 _atom_site_label
 _atom_site_symmetry_multiplicity
 _atom_site_fract_x
 _atom_site_fract_y
 _atom_site_fract_z
 _atom_site_occupancy
  Cu  Cu0  1  0.50360000  0.86029000  0.60074000  1.0
  Cu  Cu1  1  0.49640000  0.13971000  0.39925000  1.0
  H  H2  1  0.89862000  0.09457000  0.11109000  1.0
  H  H3  1  0.10138000  0.90542000  0.88892000  1.0
  H  H4  1  0.94418000  0.63663000  0.91126000  1.0
  H  H5  1  0.05582000  0.36336000  0.08875000  1.0
  H  H6  1  0.77863000  0.75145000  0.79537000  1.0
  H  H7  1  0.22136000  0.24855000  0.20464000  1.0
  H  H8  1  0.30381000  0.58205000  0.69050000  1.0
  H  H9  1  0.69620000  0.41795000  0.30950000  1.0
  H  H10  1  0.42636000  0.11409000  0.93988000  1.0
  H  H11  1  0.57364000  0.88591000  0.06013000  1.0
  H  H12  1  0.38635000  0.18716000  0.77685000  1.0
  H  H13  1  0.61365000  0.81283000  0.22315000  1.0
  H  H14  1  0.21526000  0.29053000  0.88800000  1.0
  H  H15  1  0.78473000  0.70947000  0.11200000  1.0
  H  H16  1  0.99752000  0.55667000  0.37289000  1.0
  H  H17  1  0.00248000  0.44335000  0.62709000  1.0
  H  H18  1  0.99527000  0.74837000  0.23920000  1.0
  H  H19  1  0.00473000  0.25164000  0.76079000  1.0
  H  H20  1  0.26949000  0.61087000  0.38134000  1.0
  H  H21  1  0.73051000  0.38914000  0.61865000  1.0
  H  H22  1  0.10752000  0.68422000  0.50264000  1.0
  H  H23  1  0.89249000  0.31577000  0.49735000  1.0
  H  H24  1  0.01251000  0.00416000  0.35218000  1.0
  H  H25  1  0.98749000  0.99584000  0.64782000  1.0
  H  H26  1  0.18842000  0.92805000  0.23732000  1.0
  H  H27  1  0.81158000  0.07196000  0.76268000  1.0
  C  C28  1  0.82365000  0.20691000  0.03460000  1.0
  C  C29  1  0.17634000  0.79309000  0.96540000  1.0
  C  C30  1  0.60313000  0.33243000  0.90123000  1.0
  C  C31  1  0.39687000  0.66757000  0.09878000  1.0
  C  C32  1  0.64096000  0.49186000  0.85051000  1.0
  C  C33  1  0.35904000  0.50813000  0.14949000  1.0
  C  C34  1  0.78733000  0.49819000  0.90214000  1.0
  C  C35  1  0.21266000  0.50181000  0.09787000  1.0
  C  C36  1  0.41300000  0.52672000  0.75433000  1.0
  C  C37  1  0.58701000  0.47327000  0.24567000  1.0
  C  C38  1  0.36488000  0.23126000  0.86119000  1.0
  C  C39  1  0.63512000  0.76874000  0.13882000  1.0
  C  C40  1  0.79452000  0.80661000  0.39592000  1.0
  C  C41  1  0.20548000  0.19339000  0.60408000  1.0
  C  C42  1  0.98298000  0.69770000  0.34381000  1.0
  C  C43  1  0.01701000  0.30231000  0.65618000  1.0
  C  C44  1  0.13586000  0.71420000  0.39833000  1.0
  C  C45  1  0.86414000  0.28580000  0.60166000  1.0
  C  C46  1  0.14932000  0.89929000  0.34092000  1.0
  C  C47  1  0.85068000  0.10071000  0.65909000  1.0
  C  C48  1  0.28480000  0.92896000  0.40021000  1.0
  C  C49  1  0.71521000  0.07103000  0.59980000  1.0
  N  N50  1  0.87487000  0.35083000  0.99638000  1.0
  N  N51  1  0.12512000  0.64917000  0.00363000  1.0
  N  N52  1  0.69106000  0.18517000  0.99191000  1.0
  N  N53  1  0.30894000  0.81482000  0.00810000  1.0
  N  N54  1  0.84517000  0.63713000  0.86361000  1.0
  N  N55  1  0.15482000  0.36286000  0.13640000  1.0
  N  N56  1  0.51996000  0.61168000  0.75788000  1.0
  N  N57  1  0.48004000  0.38831000  0.24213000  1.0
  N  N58  1  0.45664000  0.35817000  0.83859000  1.0
  N  N59  1  0.54336000  0.64183000  0.16141000  1.0
  O  O60  1  0.72826000  0.72839000  0.50377000  1.0
  O  O61  1  0.27175000  0.27163000  0.49623000  1.0
  O  O62  1  0.72355000  0.97012000  0.33087000  1.0
  O  O63  1  0.27644000  0.02988000  0.66911000  1.0
  O  O64  1  0.33588000  0.82448000  0.50896000  1.0
  O  O65  1  0.66415000  0.17551000  0.49104000  1.0
  O  O66  1  0.33529000  0.06200000  0.33534000  1.0
  O  O67  1  0.66468000  0.93802000  0.66467000  1.0
