# generated using pymatgen
data_PrP2H12C6NO11
_symmetry_space_group_name_H-M   'P 1'
_cell_length_a   9.09009000
_cell_length_b   11.05410000
_cell_length_c   15.18900000
_cell_angle_alpha   93.10780000
_cell_angle_beta   90.00000000
_cell_angle_gamma   90.00000000
_symmetry_Int_Tables_number   1
_chemical_formula_structural   PrP2H12C6NO11
_chemical_formula_sum   'Pr4 P8 H48 C24 N4 O44'
_cell_volume   1523.98806847
_cell_formula_units_Z   4
loop_
 _symmetry_equiv_pos_site_id
 _symmetry_equiv_pos_as_xyz
  1  'x, y, z'
loop_
 _atom_site_type_symbol
 _atom_site_label
 _atom_site_symmetry_multiplicity
 _atom_site_fract_x
 _atom_site_fract_y
 _atom_site_fract_z
 _atom_site_occupancy
  Pr  Pr0  1  0.25013000  0.40708000  0.61353000  1.0
  Pr  Pr1  1  0.75013000  0.59291000  0.88647000  1.0
  Pr  Pr2  1  0.74986000  0.59291000  0.38647000  1.0
  Pr  Pr3  1  0.24987000  0.40709000  0.11353000  1.0
  P  P4  1  0.15441000  0.64136000  0.45135000  1.0
  P  P5  1  0.65441000  0.35864000  0.04865000  1.0
  P  P6  1  0.84558000  0.35865000  0.54865000  1.0
  P  P7  1  0.34559000  0.64136000  0.95135000  1.0
  P  P8  1  0.19680000  0.05951000  0.60200000  1.0
  P  P9  1  0.69681000  0.94049000  0.89799000  1.0
  P  P10  1  0.80320000  0.94049000  0.39800000  1.0
  P  P11  1  0.30319000  0.05951000  0.10201000  1.0
  H  H12  1  0.35679000  0.04607000  0.70640000  1.0
  H  H13  1  0.85679000  0.95393000  0.79360000  1.0
  H  H14  1  0.64321000  0.95393000  0.29360000  1.0
  H  H15  1  0.14321000  0.04606000  0.20640000  1.0
  H  H16  1  0.47660000  0.36968000  0.44758000  1.0
  H  H17  1  0.97659000  0.63032000  0.05242000  1.0
  H  H18  1  0.52340000  0.63032000  0.55242000  1.0
  H  H19  1  0.02341000  0.36969000  0.94758000  1.0
  H  H20  1  0.55679000  0.39644000  0.53471000  1.0
  H  H21  1  0.05679000  0.60357000  0.96529000  1.0
  H  H22  1  0.44321000  0.60356000  0.46529000  1.0
  H  H23  1  0.94321000  0.39644000  0.03471000  1.0
  H  H24  1  0.09929000  0.91548000  0.43593000  1.0
  H  H25  1  0.59929000  0.08452000  0.06407000  1.0
  H  H26  1  0.90071000  0.08453000  0.56407000  1.0
  H  H27  1  0.40071000  0.91548000  0.93593000  1.0
  H  H28  1  0.13659000  0.80262000  0.56516000  1.0
  H  H29  1  0.63660000  0.19738000  0.93484000  1.0
  H  H30  1  0.86340000  0.19739000  0.43484000  1.0
  H  H31  1  0.36340000  0.80262000  0.06516000  1.0
  H  H32  1  0.32422000  0.77336000  0.53414000  1.0
  H  H33  1  0.82423000  0.22664000  0.96587000  1.0
  H  H34  1  0.67577000  0.22664000  0.46586000  1.0
  H  H35  1  0.17578000  0.77336000  0.03414000  1.0
  H  H36  1  0.26820000  0.07397000  0.45221000  1.0
  H  H37  1  0.76820000  0.92603000  0.04779000  1.0
  H  H38  1  0.73181000  0.92603000  0.54779000  1.0
  H  H39  1  0.23181000  0.07397000  0.95221000  1.0
  H  H40  1  0.39487000  0.98111000  0.50770000  1.0
  H  H41  1  0.89487000  0.01888000  0.99230000  1.0
  H  H42  1  0.60513000  0.01889000  0.49230000  1.0
  H  H43  1  0.10513000  0.98111000  0.00770000  1.0
  H  H44  1  0.28547000  0.94624000  0.32949000  1.0
  H  H45  1  0.78546000  0.05376000  0.17051000  1.0
  H  H46  1  0.71454000  0.05376000  0.67051000  1.0
  H  H47  1  0.21454000  0.94624000  0.82949000  1.0
  H  H48  1  0.40134000  0.83759000  0.37991000  1.0
  H  H49  1  0.90135000  0.16240000  0.12009000  1.0
  H  H50  1  0.59866000  0.16241000  0.62009000  1.0
  H  H51  1  0.09866000  0.83759000  0.87991000  1.0
  H  H52  1  0.09398000  0.78225000  0.30118000  1.0
  H  H53  1  0.59398000  0.21775000  0.19882000  1.0
  H  H54  1  0.90602000  0.21775000  0.69882000  1.0
  H  H55  1  0.40602000  0.78225000  0.80118000  1.0
  H  H56  1  0.26568000  0.74925000  0.24779000  1.0
  H  H57  1  0.76569000  0.25076000  0.25222000  1.0
  H  H58  1  0.73432000  0.25076000  0.75222000  1.0
  H  H59  1  0.23431000  0.74924000  0.74779000  1.0
  C  C60  1  0.21169000  0.78381000  0.50955000  1.0
  C  C61  1  0.71170000  0.21619000  0.99045000  1.0
  C  C62  1  0.78830000  0.21620000  0.49045000  1.0
  C  C63  1  0.28830000  0.78381000  0.00955000  1.0
  C  C64  1  0.27785000  0.00002000  0.49734000  1.0
  C  C65  1  0.77786000  0.99997000  0.00266000  1.0
  C  C66  1  0.72215000  0.99998000  0.50266000  1.0
  C  C67  1  0.22215000  0.00003000  0.99734000  1.0
  C  C68  1  0.28715000  0.86313000  0.36570000  1.0
  C  C69  1  0.78715000  0.13687000  0.13430000  1.0
  C  C70  1  0.71285000  0.13687000  0.63430000  1.0
  C  C71  1  0.21285000  0.86313000  0.86570000  1.0
  C  C72  1  0.21102000  0.76256000  0.31189000  1.0
  C  C73  1  0.71102000  0.23744000  0.18811000  1.0
  C  C74  1  0.78898000  0.23744000  0.68811000  1.0
  C  C75  1  0.28898000  0.76256000  0.81189000  1.0
  C  C76  1  0.53146000  0.55291000  0.71407000  1.0
  C  C77  1  0.03148000  0.44709000  0.78594000  1.0
  C  C78  1  0.46853000  0.44708000  0.28594000  1.0
  C  C79  1  0.96853000  0.55292000  0.21406000  1.0
  C  C80  1  0.52539000  0.42830000  0.75770000  1.0
  C  C81  1  0.02540000  0.57169000  0.74230000  1.0
  C  C82  1  0.47461000  0.57169000  0.24230000  1.0
  C  C83  1  0.97460000  0.42832000  0.25770000  1.0
  N  N84  1  0.21024000  0.89045000  0.45243000  1.0
  N  N85  1  0.71024000  0.10955000  0.04757000  1.0
  N  N86  1  0.78976000  0.10955000  0.54757000  1.0
  N  N87  1  0.28976000  0.89045000  0.95243000  1.0
  O  O88  1  0.23770000  0.53905000  0.49033000  1.0
  O  O89  1  0.73770000  0.46094000  0.00967000  1.0
  O  O90  1  0.76230000  0.46095000  0.50967000  1.0
  O  O91  1  0.26230000  0.53906000  0.99033000  1.0
  O  O92  1  0.22679000  0.64943000  0.35460000  1.0
  O  O93  1  0.72679000  0.35057000  0.14540000  1.0
  O  O94  1  0.77321000  0.35057000  0.64540000  1.0
  O  O95  1  0.27321000  0.64943000  0.85460000  1.0
  O  O96  1  0.98968000  0.64096000  0.44718000  1.0
  O  O97  1  0.48968000  0.35903000  0.05282000  1.0
  O  O98  1  0.01032000  0.35903000  0.55281000  1.0
  O  O99  1  0.51032000  0.64097000  0.94719000  1.0
  O  O100  1  0.03783000  0.02264000  0.60616000  1.0
  O  O101  1  0.53783000  0.97736000  0.89385000  1.0
  O  O102  1  0.96217000  0.97736000  0.39384000  1.0
  O  O103  1  0.46217000  0.02264000  0.10616000  1.0
  O  O104  1  0.24466000  0.18970000  0.60623000  1.0
  O  O105  1  0.74467000  0.81030000  0.89377000  1.0
  O  O106  1  0.75533000  0.81030000  0.39378000  1.0
  O  O107  1  0.25533000  0.18970000  0.10623000  1.0
  O  O108  1  0.28362000  0.99146000  0.67885000  1.0
  O  O109  1  0.78362000  0.00854000  0.82115000  1.0
  O  O110  1  0.71639000  0.00854000  0.32115000  1.0
  O  O111  1  0.21639000  0.99146000  0.17885000  1.0
  O  O112  1  0.45078000  0.56361000  0.64600000  1.0
  O  O113  1  0.95080000  0.43640000  0.85400000  1.0
  O  O114  1  0.54921000  0.43639000  0.35400000  1.0
  O  O115  1  0.04922000  0.56362000  0.14600000  1.0
  O  O116  1  0.61532000  0.63322000  0.74773000  1.0
  O  O117  1  0.11535000  0.36679000  0.75228000  1.0
  O  O118  1  0.38466000  0.36678000  0.25227000  1.0
  O  O119  1  0.88466000  0.63322000  0.24772000  1.0
  O  O120  1  0.43999000  0.34883000  0.72322000  1.0
  O  O121  1  0.93999000  0.65116000  0.77677000  1.0
  O  O122  1  0.56001000  0.65116000  0.27678000  1.0
  O  O123  1  0.06001000  0.34884000  0.22322000  1.0
  O  O124  1  0.60943000  0.41627000  0.82329000  1.0
  O  O125  1  0.10943000  0.58373000  0.67670000  1.0
  O  O126  1  0.39056000  0.58373000  0.17671000  1.0
  O  O127  1  0.89056000  0.41628000  0.32329000  1.0
  O  O128  1  0.47075000  0.35132000  0.51110000  1.0
  O  O129  1  0.97075000  0.64868000  0.98890000  1.0
  O  O130  1  0.52925000  0.64868000  0.48890000  1.0
  O  O131  1  0.02925000  0.35132000  0.01110000  1.0
