# generated using pymatgen
data_ZnH12C18N2O5
_symmetry_space_group_name_H-M   'P 1'
_cell_length_a   11.51470000
_cell_length_b   11.95330000
_cell_length_c   20.04000000
_cell_angle_alpha   90.00010000
_cell_angle_beta   90.00040000
_cell_angle_gamma   77.65100000
_symmetry_Int_Tables_number   1
_chemical_formula_structural   ZnH12C18N2O5
_chemical_formula_sum   'Zn4 H48 C72 N8 O20'
_cell_volume   2694.46060563
_cell_formula_units_Z   4
loop_
 _symmetry_equiv_pos_site_id
 _symmetry_equiv_pos_as_xyz
  1  'x, y, z'
loop_
 _atom_site_type_symbol
 _atom_site_label
 _atom_site_symmetry_multiplicity
 _atom_site_fract_x
 _atom_site_fract_y
 _atom_site_fract_z
 _atom_site_occupancy
  Zn  Zn0  1  0.49487000  0.91833000  0.08163000  1.0
  Zn  Zn1  1  0.50513000  0.58167000  0.58163000  1.0
  Zn  Zn2  1  0.50513000  0.08167000  0.91837000  1.0
  Zn  Zn3  1  0.49487000  0.41833000  0.41837000  1.0
  H  H4  1  0.46885000  0.14265000  0.36937000  1.0
  H  H5  1  0.46586000  0.67245000  0.31686000  1.0
  H  H6  1  0.47289000  0.02543000  0.27763000  1.0
  H  H7  1  0.12108000  0.73767000  0.05470000  1.0
  H  H8  1  0.04268000  0.09784000  0.10727000  1.0
  H  H9  1  0.46254000  0.90777000  0.48088000  1.0
  H  H10  1  0.72924000  0.74973000  0.05681000  1.0
  H  H11  1  0.65855000  0.09183000  0.10961000  1.0
  H  H12  1  0.94660000  0.73774000  0.05744000  1.0
  H  H13  1  0.33281000  0.74693000  0.05050000  1.0
  H  H14  1  0.87073000  0.09771000  0.11006000  1.0
  H  H15  1  0.25912000  0.08986000  0.10155000  1.0
  H  H16  1  0.53115000  0.35735000  0.86937000  1.0
  H  H17  1  0.53413000  0.82755000  0.81686000  1.0
  H  H18  1  0.52711000  0.47457000  0.77763000  1.0
  H  H19  1  0.87891000  0.76234000  0.55470000  1.0
  H  H20  1  0.95732000  0.40216000  0.60727000  1.0
  H  H21  1  0.53745000  0.59223000  0.98089000  1.0
  H  H22  1  0.27076000  0.75027000  0.55681000  1.0
  H  H23  1  0.34145000  0.40817000  0.60961000  1.0
  H  H24  1  0.05340000  0.76226000  0.55744000  1.0
  H  H25  1  0.66719000  0.75307000  0.55050000  1.0
  H  H26  1  0.12927000  0.40229000  0.61006000  1.0
  H  H27  1  0.74088000  0.41014000  0.60155000  1.0
  H  H28  1  0.53115000  0.85735000  0.63063000  1.0
  H  H29  1  0.53414000  0.32756000  0.68314000  1.0
  H  H30  1  0.52711000  0.97457000  0.72237000  1.0
  H  H31  1  0.87892000  0.26233000  0.94530000  1.0
  H  H32  1  0.95732000  0.90216000  0.89273000  1.0
  H  H33  1  0.53746000  0.09223000  0.51912000  1.0
  H  H34  1  0.27076000  0.25027000  0.94319000  1.0
  H  H35  1  0.34145000  0.90817000  0.89039000  1.0
  H  H36  1  0.05340000  0.26225000  0.94256000  1.0
  H  H37  1  0.66719000  0.25307000  0.94950000  1.0
  H  H38  1  0.12927000  0.90229000  0.88994000  1.0
  H  H39  1  0.74088000  0.91014000  0.89845000  1.0
  H  H40  1  0.46885000  0.64265000  0.13063000  1.0
  H  H41  1  0.46587000  0.17245000  0.18314000  1.0
  H  H42  1  0.47289000  0.52543000  0.22237000  1.0
  H  H43  1  0.12108000  0.23766000  0.44529000  1.0
  H  H44  1  0.04268000  0.59784000  0.39273000  1.0
  H  H45  1  0.46254000  0.40777000  0.01911000  1.0
  H  H46  1  0.72924000  0.24973000  0.44319000  1.0
  H  H47  1  0.65855000  0.59183000  0.39040000  1.0
  H  H48  1  0.94660000  0.23774000  0.44256000  1.0
  H  H49  1  0.33281000  0.24693000  0.44950000  1.0
  H  H50  1  0.87073000  0.59771000  0.38994000  1.0
  H  H51  1  0.25912000  0.58986000  0.39845000  1.0
  C  C52  1  0.47029000  0.84662000  0.28984000  1.0
  C  C53  1  0.46346000  0.68681000  0.45220000  1.0
  C  C54  1  0.05959000  0.91775000  0.08114000  1.0
  C  C55  1  0.46557000  0.75841000  0.33495000  1.0
  C  C56  1  0.46936000  0.95724000  0.31313000  1.0
  C  C57  1  0.14538000  0.81900000  0.06523000  1.0
  C  C58  1  0.10227000  0.01717000  0.09445000  1.0
  C  C59  1  0.47791000  0.82313000  0.21591000  1.0
  C  C60  1  0.46467000  0.98075000  0.38184000  1.0
  C  C61  1  0.46258000  0.78167000  0.40362000  1.0
  C  C62  1  0.93089000  0.91783000  0.08297000  1.0
  C  C63  1  0.46252000  0.89202000  0.42729000  1.0
  C  C64  1  0.76544000  0.82456000  0.06862000  1.0
  C  C65  1  0.72539000  0.01535000  0.09743000  1.0
  C  C66  1  0.88719000  0.81920000  0.06891000  1.0
  C  C67  1  0.26518000  0.82296000  0.06267000  1.0
  C  C68  1  0.84557000  0.01734000  0.09806000  1.0
  C  C69  1  0.22338000  0.01424000  0.09130000  1.0
  C  C70  1  0.52970000  0.65338000  0.78984000  1.0
  C  C71  1  0.53654000  0.81319000  0.95220000  1.0
  C  C72  1  0.94041000  0.58225000  0.58114000  1.0
  C  C73  1  0.53443000  0.74159000  0.83495000  1.0
  C  C74  1  0.53064000  0.54276000  0.81313000  1.0
  C  C75  1  0.85461000  0.68100000  0.56523000  1.0
  C  C76  1  0.89773000  0.48283000  0.59445000  1.0
  C  C77  1  0.52209000  0.67687000  0.71591000  1.0
  C  C78  1  0.53533000  0.51925000  0.88184000  1.0
  C  C79  1  0.53742000  0.71833000  0.90362000  1.0
  C  C80  1  0.06911000  0.58217000  0.58297000  1.0
  C  C81  1  0.53748000  0.60798000  0.92729000  1.0
  C  C82  1  0.23456000  0.67544000  0.56863000  1.0
  C  C83  1  0.27461000  0.48465000  0.59743000  1.0
  C  C84  1  0.11281000  0.68079000  0.56891000  1.0
  C  C85  1  0.73482000  0.67704000  0.56267000  1.0
  C  C86  1  0.15442000  0.48265000  0.59806000  1.0
  C  C87  1  0.77662000  0.48576000  0.59130000  1.0
  C  C88  1  0.52971000  0.15338000  0.71016000  1.0
  C  C89  1  0.53654000  0.31319000  0.54780000  1.0
  C  C90  1  0.94041000  0.08225000  0.91886000  1.0
  C  C91  1  0.53443000  0.24159000  0.66505000  1.0
  C  C92  1  0.53064000  0.04276000  0.68687000  1.0
  C  C93  1  0.85462000  0.18100000  0.93477000  1.0
  C  C94  1  0.89773000  0.98283000  0.90555000  1.0
  C  C95  1  0.52210000  0.17687000  0.78409000  1.0
  C  C96  1  0.53533000  0.01925000  0.61816000  1.0
  C  C97  1  0.53742000  0.21833000  0.59638000  1.0
  C  C98  1  0.06911000  0.08217000  0.91703000  1.0
  C  C99  1  0.53748000  0.10798000  0.57271000  1.0
  C  C100  1  0.23456000  0.17544000  0.93137000  1.0
  C  C101  1  0.27461000  0.98465000  0.90257000  1.0
  C  C102  1  0.11281000  0.18080000  0.93110000  1.0
  C  C103  1  0.73482000  0.17704000  0.93733000  1.0
  C  C104  1  0.15442000  0.98266000  0.90194000  1.0
  C  C105  1  0.77662000  0.98576000  0.90870000  1.0
  C  C106  1  0.47029000  0.34662000  0.21016000  1.0
  C  C107  1  0.46346000  0.18681000  0.04780000  1.0
  C  C108  1  0.05959000  0.41775000  0.41886000  1.0
  C  C109  1  0.46557000  0.25841000  0.16505000  1.0
  C  C110  1  0.46936000  0.45724000  0.18687000  1.0
  C  C111  1  0.14538000  0.31900000  0.43477000  1.0
  C  C112  1  0.10227000  0.51717000  0.40555000  1.0
  C  C113  1  0.47791000  0.32313000  0.28409000  1.0
  C  C114  1  0.46467000  0.48075000  0.11816000  1.0
  C  C115  1  0.46258000  0.28167000  0.09638000  1.0
  C  C116  1  0.93089000  0.41783000  0.41703000  1.0
  C  C117  1  0.46252000  0.39202000  0.07271000  1.0
  C  C118  1  0.76544000  0.32456000  0.43138000  1.0
  C  C119  1  0.72539000  0.51535000  0.40257000  1.0
  C  C120  1  0.88719000  0.31920000  0.43109000  1.0
  C  C121  1  0.26518000  0.32296000  0.43733000  1.0
  C  C122  1  0.84558000  0.51734000  0.40194000  1.0
  C  C123  1  0.22338000  0.51424000  0.40870000  1.0
  N  N124  1  0.68500000  0.92118000  0.08205000  1.0
  N  N125  1  0.30408000  0.91923000  0.07527000  1.0
  N  N126  1  0.31500000  0.57882000  0.58205000  1.0
  N  N127  1  0.69592000  0.58077000  0.57527000  1.0
  N  N128  1  0.31500000  0.07883000  0.91795000  1.0
  N  N129  1  0.69592000  0.08077000  0.92473000  1.0
  N  N130  1  0.68500000  0.42117000  0.41795000  1.0
  N  N131  1  0.30408000  0.41923000  0.42473000  1.0
  O  O132  1  0.46366000  0.08674000  0.40636000  1.0
  O  O133  1  0.45162000  0.59047000  0.42964000  1.0
  O  O134  1  0.49475000  0.90742000  0.17975000  1.0
  O  O135  1  0.46817000  0.72629000  0.19492000  1.0
  O  O136  1  0.47628000  0.70811000  0.51403000  1.0
  O  O137  1  0.53634000  0.41326000  0.90636000  1.0
  O  O138  1  0.54838000  0.90953000  0.92964000  1.0
  O  O139  1  0.50525000  0.59258000  0.67975000  1.0
  O  O140  1  0.53183000  0.77371000  0.69492000  1.0
  O  O141  1  0.52372000  0.79190000  0.01403000  1.0
  O  O142  1  0.53634000  0.91326000  0.59364000  1.0
  O  O143  1  0.54838000  0.40953000  0.57036000  1.0
  O  O144  1  0.50525000  0.09259000  0.82025000  1.0
  O  O145  1  0.53183000  0.27372000  0.80508000  1.0
  O  O146  1  0.52372000  0.29190000  0.48597000  1.0
  O  O147  1  0.46366000  0.58674000  0.09364000  1.0
  O  O148  1  0.45162000  0.09047000  0.07035000  1.0
  O  O149  1  0.49475000  0.40742000  0.32025000  1.0
  O  O150  1  0.46817000  0.22629000  0.30508000  1.0
  O  O151  1  0.47629000  0.20810000  0.98597000  1.0
