# generated using pymatgen
data_ZnH10C20N3(ClO2)2
_symmetry_space_group_name_H-M   'P 1'
_cell_length_a   15.90700000
_cell_length_b   17.30290000
_cell_length_c   18.10070000
_cell_angle_alpha   90.21570000
_cell_angle_beta   92.44850000
_cell_angle_gamma   95.74010000
_symmetry_Int_Tables_number   1
_chemical_formula_structural   ZnH10C20N3(ClO2)2
_chemical_formula_sum   'Zn2 H20 C40 N6 Cl4 O8'
_cell_volume   4952.31842554
_cell_formula_units_Z   2
loop_
 _symmetry_equiv_pos_site_id
 _symmetry_equiv_pos_as_xyz
  1  'x, y, z'
loop_
 _atom_site_type_symbol
 _atom_site_label
 _atom_site_symmetry_multiplicity
 _atom_site_fract_x
 _atom_site_fract_y
 _atom_site_fract_z
 _atom_site_occupancy
  Zn  Zn0  1  0.41178000  0.49602000  0.49669000  1.0
  Zn  Zn1  1  0.58821000  0.50399000  0.50329000  1.0
  H  H2  1  0.71621000  0.42563000  0.42518000  1.0
  H  H3  1  0.87539000  0.42683000  0.42704000  1.0
  H  H4  1  0.88866000  0.60038000  0.60012000  1.0
  H  H5  1  0.72835000  0.59151000  0.59144000  1.0
  H  H6  1  0.11133000  0.39965000  0.39987000  1.0
  H  H7  1  0.12460000  0.57321000  0.57294000  1.0
  H  H8  1  0.28378000  0.57441000  0.57480000  1.0
  H  H9  1  0.27164000  0.40851000  0.40856000  1.0
  H  H10  1  0.62133000  0.25905000  0.50473000  1.0
  H  H11  1  0.61429000  0.11308000  0.50476000  1.0
  H  H12  1  0.34296000  0.09985000  0.49390000  1.0
  H  H13  1  0.35047000  0.24635000  0.49382000  1.0
  H  H14  1  0.65702000  0.90016000  0.50619000  1.0
  H  H15  1  0.38569000  0.88693000  0.49533000  1.0
  H  H16  1  0.37864000  0.74097000  0.49536000  1.0
  H  H17  1  0.64950000  0.75366000  0.50621000  1.0
  H  H18  1  0.36400000  0.49446000  0.87281000  1.0
  H  H19  1  0.63601000  0.50506000  0.88296000  1.0
  H  H20  1  0.36398000  0.49469000  0.11703000  1.0
  H  H21  1  0.63600000  0.50530000  0.12716000  1.0
  C  C22  1  0.49105000  0.34786000  0.49856000  1.0
  C  C23  1  0.50011000  0.49947000  0.35444000  1.0
  C  C24  1  0.50892000  0.65215000  0.50144000  1.0
  C  C25  1  0.49994000  0.50046000  0.64554000  1.0
  C  C26  1  0.75738000  0.46307000  0.46290000  1.0
  C  C27  1  0.84467000  0.46392000  0.46393000  1.0
  C  C28  1  0.89299000  0.51419000  0.51406000  1.0
  C  C29  1  0.85188000  0.56123000  0.56093000  1.0
  C  C30  1  0.76397000  0.55664000  0.55622000  1.0
  C  C31  1  0.14811000  0.43880000  0.43906000  1.0
  C  C32  1  0.10700000  0.48584000  0.48593000  1.0
  C  C33  1  0.15533000  0.53611000  0.53605000  1.0
  C  C34  1  0.24262000  0.53696000  0.53709000  1.0
  C  C35  1  0.23602000  0.44339000  0.44377000  1.0
  C  C36  1  0.48631000  0.26088000  0.49876000  1.0
  C  C37  1  0.56084000  0.22335000  0.50205000  1.0
  C  C38  1  0.55716000  0.14298000  0.50221000  1.0
  C  C39  1  0.47790000  0.09848000  0.49906000  1.0
  C  C40  1  0.40338000  0.13580000  0.49604000  1.0
  C  C41  1  0.40759000  0.21644000  0.49590000  1.0
  C  C42  1  0.59660000  0.86421000  0.50405000  1.0
  C  C43  1  0.52207000  0.90152000  0.50103000  1.0
  C  C44  1  0.44281000  0.85703000  0.49788000  1.0
  C  C45  1  0.43913000  0.77666000  0.49803000  1.0
  C  C46  1  0.51367000  0.73913000  0.50129000  1.0
  C  C47  1  0.59239000  0.78357000  0.50416000  1.0
  C  C48  1  0.49995000  0.50020000  0.72930000  1.0
  C  C49  1  0.42412000  0.49706000  0.76877000  1.0
  C  C50  1  0.42391000  0.49697000  0.84570000  1.0
  C  C51  1  0.50002000  0.49998000  0.88818000  1.0
  C  C52  1  0.57608000  0.50291000  0.85138000  1.0
  C  C53  1  0.57578000  0.50294000  0.77442000  1.0
  C  C54  1  0.50003000  0.49991000  0.96629000  1.0
  C  C55  1  0.49995000  0.49983000  0.03368000  1.0
  C  C56  1  0.49997000  0.49979000  0.11180000  1.0
  C  C57  1  0.42391000  0.49686000  0.14860000  1.0
  C  C58  1  0.42423000  0.49687000  0.22556000  1.0
  C  C59  1  0.50006000  0.49965000  0.27068000  1.0
  C  C60  1  0.57588000  0.50276000  0.23120000  1.0
  C  C61  1  0.57609000  0.50279000  0.15427000  1.0
  N  N62  1  0.71798000  0.50857000  0.50811000  1.0
  N  N63  1  0.98261000  0.52171000  0.52159000  1.0
  N  N64  1  0.01738000  0.47832000  0.47840000  1.0
  N  N65  1  0.28201000  0.49146000  0.49188000  1.0
  N  N66  1  0.46608000  0.01644000  0.49884000  1.0
  N  N67  1  0.53390000  0.98357000  0.50125000  1.0
  Cl  Cl68  1  0.32344000  0.49266000  0.72708000  1.0
  Cl  Cl69  1  0.67634000  0.50599000  0.74024000  1.0
  Cl  Cl70  1  0.32367000  0.49371000  0.25975000  1.0
  Cl  Cl71  1  0.67657000  0.50723000  0.27288000  1.0
  O  O72  1  0.42125000  0.37830000  0.49566000  1.0
  O  O73  1  0.56459000  0.38484000  0.50136000  1.0
  O  O74  1  0.57122000  0.50267000  0.38943000  1.0
  O  O75  1  0.42901000  0.49619000  0.38415000  1.0
  O  O76  1  0.57871000  0.62171000  0.50389000  1.0
  O  O77  1  0.43536000  0.61517000  0.49904000  1.0
  O  O78  1  0.42878000  0.49673000  0.61054000  1.0
  O  O79  1  0.57106000  0.50434000  0.61584000  1.0
