# generated using pymatgen
data_ZnH13C18N2O5F
_symmetry_space_group_name_H-M   'P 1'
_cell_length_a   8.98249000
_cell_length_b   10.98290000
_cell_length_c   10.98840000
_cell_angle_alpha   103.59300000
_cell_angle_beta   108.72100000
_cell_angle_gamma   111.03400000
_symmetry_Int_Tables_number   1
_chemical_formula_structural   ZnH13C18N2O5F
_chemical_formula_sum   'Zn2 H26 C36 N4 O10 F2'
_cell_volume   879.86616412
_cell_formula_units_Z   2
loop_
 _symmetry_equiv_pos_site_id
 _symmetry_equiv_pos_as_xyz
  1  'x, y, z'
loop_
 _atom_site_type_symbol
 _atom_site_label
 _atom_site_symmetry_multiplicity
 _atom_site_fract_x
 _atom_site_fract_y
 _atom_site_fract_z
 _atom_site_occupancy
  Zn  Zn0  1  0.82424000  0.01452000  0.63917000  1.0
  Zn  Zn1  1  0.17576000  0.98548000  0.36082000  1.0
  H  H2  1  0.36234000  0.66872000  0.57182000  1.0
  H  H3  1  0.63764000  0.33126000  0.42817000  1.0
  H  H4  1  0.34435000  0.53836000  0.72680000  1.0
  H  H5  1  0.65564000  0.46164000  0.27320000  1.0
  H  H6  1  0.13774000  0.53045000  0.83851000  1.0
  H  H7  1  0.86228000  0.46957000  0.16150000  1.0
  H  H8  1  0.17803000  0.13866000  0.65483000  1.0
  H  H9  1  0.82197000  0.86133000  0.34516000  1.0
  H  H10  1  0.47430000  0.34669000  0.79167000  1.0
  H  H11  1  0.52570000  0.65329000  0.20834000  1.0
  H  H12  1  0.29408000  0.47738000  0.09792000  1.0
  H  H13  1  0.70593000  0.52261000  0.90208000  1.0
  H  H14  1  0.00296000  0.26535000  0.94371000  1.0
  H  H15  1  0.99704000  0.73465000  0.05628000  1.0
  H  H16  1  0.86084000  0.94094000  0.88498000  1.0
  H  H17  1  0.13916000  0.05907000  0.11503000  1.0
  H  H18  1  0.73321000  0.93506000  0.05422000  1.0
  H  H19  1  0.26679000  0.06495000  0.94578000  1.0
  H  H20  1  0.38438000  0.07429000  0.82157000  1.0
  H  H21  1  0.61561000  0.92570000  0.17842000  1.0
  H  H22  1  0.53968000  0.08878000  0.67409000  1.0
  H  H23  1  0.46031000  0.91121000  0.32590000  1.0
  H  H24  1  0.47617000  0.80581000  0.46678000  1.0
  H  H25  1  0.52383000  0.19419000  0.53322000  1.0
  H  H26  1  0.63685000  0.75949000  0.47700000  1.0
  H  H27  1  0.36315000  0.24051000  0.52300000  1.0
  C  C28  1  0.19057000  0.81542000  0.50198000  1.0
  C  C29  1  0.80943000  0.18458000  0.49802000  1.0
  C  C30  1  0.16813000  0.73226000  0.59134000  1.0
  C  C31  1  0.83187000  0.26774000  0.40866000  1.0
  C  C32  1  0.27376000  0.66514000  0.62066000  1.0
  C  C33  1  0.72623000  0.33485000  0.37934000  1.0
  C  C34  1  0.26500000  0.59318000  0.70905000  1.0
  C  C35  1  0.73500000  0.40682000  0.29095000  1.0
  C  C36  1  0.14972000  0.58710000  0.77023000  1.0
  C  C37  1  0.85029000  0.41292000  0.22978000  1.0
  C  C38  1  0.04376000  0.65175000  0.73787000  1.0
  C  C39  1  0.95626000  0.34827000  0.26215000  1.0
  C  C40  1  0.04664000  0.72323000  0.64885000  1.0
  C  C41  1  0.95337000  0.27678000  0.35116000  1.0
  C  C42  1  0.91046000  0.77537000  0.61052000  1.0
  C  C43  1  0.08955000  0.22464000  0.38949000  1.0
  C  C44  1  0.20912000  0.21733000  0.75309000  1.0
  C  C45  1  0.79087000  0.78267000  0.24690000  1.0
  C  C46  1  0.37637000  0.33510000  0.83203000  1.0
  C  C47  1  0.62362000  0.66488000  0.16796000  1.0
  C  C48  1  0.41288000  0.43527000  0.95801000  1.0
  C  C49  1  0.58712000  0.56471000  0.04200000  1.0
  C  C50  1  0.27608000  0.40739000  0.00001000  1.0
  C  C51  1  0.72393000  0.59259000  0.00000000  1.0
  C  C52  1  0.11173000  0.28762000  0.91424000  1.0
  C  C53  1  0.88827000  0.71237000  0.08575000  1.0
  C  C54  1  0.75738000  0.97269000  0.87823000  1.0
  C  C55  1  0.24262000  0.02731000  0.12177000  1.0
  C  C56  1  0.68191000  0.96698000  0.97020000  1.0
  C  C57  1  0.31809000  0.03302000  0.02980000  1.0
  C  C58  1  0.54402000  0.00371000  0.95358000  1.0
  C  C59  1  0.45598000  0.99629000  0.04641000  1.0
  C  C60  1  0.49241000  0.04712000  0.84399000  1.0
  C  C61  1  0.50758000  0.95287000  0.15599000  1.0
  C  C62  1  0.57731000  0.05372000  0.75847000  1.0
  C  C63  1  0.42268000  0.94628000  0.24152000  1.0
  N  N64  1  0.07771000  0.19470000  0.79235000  1.0
  N  N65  1  0.92228000  0.80530000  0.20765000  1.0
  N  N66  1  0.70709000  0.01616000  0.77429000  1.0
  N  N67  1  0.29291000  0.98384000  0.22570000  1.0
  O  O68  1  0.95245000  0.89893000  0.69290000  1.0
  O  O69  1  0.04756000  0.10108000  0.30711000  1.0
  O  O70  1  0.76435000  0.68952000  0.50411000  1.0
  O  O71  1  0.23566000  0.31050000  0.49589000  1.0
  O  O72  1  0.12399000  0.90113000  0.50162000  1.0
  O  O73  1  0.87600000  0.09886000  0.49837000  1.0
  O  O74  1  0.27579000  0.80180000  0.43182000  1.0
  O  O75  1  0.72419000  0.19818000  0.56817000  1.0
  O  O76  1  0.59552000  0.83333000  0.46856000  1.0
  O  O77  1  0.40448000  0.16667000  0.53144000  1.0
  F  F78  1  0.92676000  0.64276000  0.79545000  1.0
  F  F79  1  0.07326000  0.35727000  0.20458000  1.0
