# generated using pymatgen
data_ZnH19C23NO6
_symmetry_space_group_name_H-M   'P 1'
_cell_length_a   13.89860000
_cell_length_b   15.30750000
_cell_length_c   17.32030000
_cell_angle_alpha   89.40990000
_cell_angle_beta   84.07480000
_cell_angle_gamma   89.93840000
_symmetry_Int_Tables_number   1
_chemical_formula_structural   ZnH19C23NO6
_chemical_formula_sum   'Zn2 H38 C46 N2 O12'
_cell_volume   3665.06150032
_cell_formula_units_Z   2
loop_
 _symmetry_equiv_pos_site_id
 _symmetry_equiv_pos_as_xyz
  1  'x, y, z'
loop_
 _atom_site_type_symbol
 _atom_site_label
 _atom_site_symmetry_multiplicity
 _atom_site_fract_x
 _atom_site_fract_y
 _atom_site_fract_z
 _atom_site_occupancy
  Zn  Zn0  1  0.59858000  0.49116000  0.49747000  1.0
  Zn  Zn1  1  0.40032000  0.49467000  0.49798000  1.0
  H  H2  1  0.36594000  0.55180000  0.26720000  1.0
  H  H3  1  0.61890000  0.47463000  0.74212000  1.0
  H  H4  1  0.07787000  0.56857000  0.39384000  1.0
  H  H5  1  0.92787000  0.35343000  0.53130000  1.0
  H  H6  1  0.25817000  0.56587000  0.39595000  1.0
  H  H7  1  0.74763000  0.35810000  0.52823000  1.0
  H  H8  1  0.23708000  0.42042000  0.59943000  1.0
  H  H9  1  0.75257000  0.62214000  0.47493000  1.0
  H  H10  1  0.05608000  0.41440000  0.60557000  1.0
  H  H11  1  0.93371000  0.62851000  0.47170000  1.0
  H  H12  1  0.32624000  0.56291000  0.73939000  1.0
  H  H13  1  0.67588000  0.53880000  0.24640000  1.0
  H  H14  1  0.38178000  0.57123000  0.00420000  1.0
  H  H15  1  0.60453000  0.57158000  0.99012000  1.0
  H  H16  1  0.68043000  0.56424000  0.10343000  1.0
  H  H17  1  0.31683000  0.59314000  0.88141000  1.0
  H  H18  1  0.61116000  0.50375000  0.88341000  1.0
  H  H19  1  0.36880000  0.58141000  0.12646000  1.0
  H  H20  1  0.42194000  0.93116000  0.39761000  1.0
  H  H21  1  0.41555000  0.05733000  0.61016000  1.0
  H  H22  1  0.56951000  0.93918000  0.60480000  1.0
  H  H23  1  0.57060000  0.04902000  0.38041000  1.0
  H  H24  1  0.40255000  0.70199000  0.41389000  1.0
  H  H25  1  0.39002000  0.28601000  0.59314000  1.0
  H  H26  1  0.48520000  0.76725000  0.71336000  1.0
  H  H27  1  0.56411000  0.85957000  0.70517000  1.0
  H  H28  1  0.62828000  0.67156000  0.73393000  1.0
  H  H29  1  0.70302000  0.76535000  0.73041000  1.0
  H  H30  1  0.60015000  0.82574000  0.84827000  1.0
  H  H31  1  0.64989000  0.72244000  0.86894000  1.0
  H  H32  1  0.52706000  0.73026000  0.85126000  1.0
  H  H33  1  0.47170000  0.30742000  0.34435000  1.0
  H  H34  1  0.46266000  0.20525000  0.29650000  1.0
  H  H35  1  0.61531000  0.34785000  0.25626000  1.0
  H  H36  1  0.61790000  0.24382000  0.21242000  1.0
  H  H37  1  0.45851000  0.27326000  0.16070000  1.0
  H  H38  1  0.54021000  0.35952000  0.13162000  1.0
  H  H39  1  0.44895000  0.37522000  0.20922000  1.0
  C  C40  1  0.50393000  0.66441000  0.50316000  1.0
  C  C41  1  0.49906000  0.32308000  0.49071000  1.0
  C  C42  1  0.45669000  0.89802000  0.44333000  1.0
  C  C43  1  0.45155000  0.09007000  0.55894000  1.0
  C  C44  1  0.45459000  0.80681000  0.44718000  1.0
  C  C45  1  0.44645000  0.18121000  0.55341000  1.0
  C  C46  1  0.50153000  0.76119000  0.50470000  1.0
  C  C47  1  0.49466000  0.22611000  0.48859000  1.0
  C  C48  1  0.54231000  0.81031000  0.56198000  1.0
  C  C49  1  0.53832000  0.17650000  0.42623000  1.0
  C  C50  1  0.53776000  0.90151000  0.56085000  1.0
  C  C51  1  0.53759000  0.08557000  0.42991000  1.0
  C  C52  1  0.49722000  0.94533000  0.50046000  1.0
  C  C53  1  0.49646000  0.04208000  0.49710000  1.0
  C  C54  1  0.11015000  0.53523000  0.44073000  1.0
  C  C55  1  0.89203000  0.41450000  0.51868000  1.0
  C  C56  1  0.20997000  0.53396000  0.44130000  1.0
  C  C57  1  0.79224000  0.41639000  0.51724000  1.0
  C  C58  1  0.19821000  0.45124000  0.55487000  1.0
  C  C59  1  0.79540000  0.56430000  0.48556000  1.0
  C  C60  1  0.09802000  0.44824000  0.55771000  1.0
  C  C61  1  0.89547000  0.56705000  0.48417000  1.0
  C  C62  1  0.51700000  0.51558000  0.34873000  1.0
  C  C63  1  0.47813000  0.49829000  0.64752000  1.0
  C  C64  1  0.05206000  0.49137000  0.49984000  1.0
  C  C65  1  0.94575000  0.49091000  0.50101000  1.0
  C  C66  1  0.52063000  0.54125000  0.26514000  1.0
  C  C67  1  0.47287000  0.51657000  0.73238000  1.0
  C  C68  1  0.43463000  0.55569000  0.23084000  1.0
  C  C69  1  0.55339000  0.50119000  0.77332000  1.0
  C  C70  1  0.43668000  0.57175000  0.15183000  1.0
  C  C71  1  0.54889000  0.51857000  0.85202000  1.0
  C  C72  1  0.52514000  0.57184000  0.10382000  1.0
  C  C73  1  0.46377000  0.55213000  0.89268000  1.0
  C  C74  1  0.61130000  0.56272000  0.13966000  1.0
  C  C75  1  0.38338000  0.56734000  0.85091000  1.0
  C  C76  1  0.60932000  0.54805000  0.21913000  1.0
  C  C77  1  0.38800000  0.55036000  0.77191000  1.0
  C  C78  1  0.53094000  0.57253000  0.01952000  1.0
  C  C79  1  0.45576000  0.56713000  0.97593000  1.0
  C  C80  1  0.56070000  0.78831000  0.69719000  1.0
  C  C81  1  0.62888000  0.74170000  0.74696000  1.0
  C  C82  1  0.59984000  0.75601000  0.83348000  1.0
  C  C83  1  0.51378000  0.25597000  0.31189000  1.0
  C  C84  1  0.56925000  0.29428000  0.23942000  1.0
  C  C85  1  0.50040000  0.32724000  0.18209000  1.0
  N  N86  1  0.25306000  0.49304000  0.49754000  1.0
  N  N87  1  0.74508000  0.49004000  0.50103000  1.0
  O  O88  1  0.57636000  0.62283000  0.52283000  1.0
  O  O89  1  0.42045000  0.36208000  0.51804000  1.0
  O  O90  1  0.42934000  0.62722000  0.47825000  1.0
  O  O91  1  0.57801000  0.36185000  0.46962000  1.0
  O  O92  1  0.59368000  0.52490000  0.38210000  1.0
  O  O93  1  0.40236000  0.51508000  0.61392000  1.0
  O  O94  1  0.43650000  0.48513000  0.38065000  1.0
  O  O95  1  0.55727000  0.46843000  0.61425000  1.0
  O  O96  1  0.40700000  0.76386000  0.39449000  1.0
  O  O97  1  0.39580000  0.22498000  0.61233000  1.0
  O  O98  1  0.58725000  0.76555000  0.61725000  1.0
  O  O99  1  0.58143000  0.21596000  0.35957000  1.0
