# generated using pymatgen
data_Cu3H16C8(Cl3O2)2
_symmetry_space_group_name_H-M   'P 1'
_cell_length_a   7.12844000
_cell_length_b   7.12846000
_cell_length_c   9.11007000
_cell_angle_alpha   98.90640000
_cell_angle_beta   98.90620000
_cell_angle_gamma   112.84200000
_symmetry_Int_Tables_number   1
_chemical_formula_structural   Cu3H16C8(Cl3O2)2
_chemical_formula_sum   'Cu3 H16 C8 Cl6 O4'
_cell_volume   409.56838076
_cell_formula_units_Z   1
loop_
 _symmetry_equiv_pos_site_id
 _symmetry_equiv_pos_as_xyz
  1  'x, y, z'
loop_
 _atom_site_type_symbol
 _atom_site_label
 _atom_site_symmetry_multiplicity
 _atom_site_fract_x
 _atom_site_fract_y
 _atom_site_fract_z
 _atom_site_occupancy
  Cu  Cu0  1  0.08454000  0.08454000  0.69246000  1.0
  Cu  Cu1  1  0.91498000  0.91498000  0.30836000  1.0
  Cu  Cu2  1  0.99882000  0.99882000  0.99784000  1.0
  H  H3  1  0.41113000  0.61750000  0.87068000  1.0
  H  H4  1  0.38219000  0.58839000  0.12916000  1.0
  H  H5  1  0.58839000  0.38220000  0.12916000  1.0
  H  H6  1  0.61751000  0.41113000  0.87068000  1.0
  H  H7  1  0.23485000  0.57870000  0.69424000  1.0
  H  H8  1  0.42129000  0.76512000  0.30543000  1.0
  H  H9  1  0.76512000  0.42129000  0.30542000  1.0
  H  H10  1  0.57870000  0.23485000  0.69423000  1.0
  H  H11  1  0.53231000  0.74161000  0.57750000  1.0
  H  H12  1  0.25882000  0.46809000  0.42271000  1.0
  H  H13  1  0.46808000  0.25883000  0.42272000  1.0
  H  H14  1  0.74162000  0.53231000  0.57750000  1.0
  H  H15  1  0.57135000  0.91437000  0.75565000  1.0
  H  H16  1  0.08569000  0.42860000  0.24467000  1.0
  H  H17  1  0.42860000  0.08570000  0.24467000  1.0
  H  H18  1  0.91438000  0.57135000  0.75565000  1.0
  C  C19  1  0.38909000  0.58821000  0.74536000  1.0
  C  C20  1  0.41170000  0.61085000  0.25450000  1.0
  C  C21  1  0.61085000  0.41170000  0.25451000  1.0
  C  C22  1  0.58822000  0.38909000  0.74536000  1.0
  C  C23  1  0.56057000  0.76067000  0.70224000  1.0
  C  C24  1  0.23944000  0.43941000  0.29794000  1.0
  C  C25  1  0.43941000  0.23944000  0.29794000  1.0
  C  C26  1  0.76067000  0.56057000  0.70224000  1.0
  Cl  Cl27  1  0.86705000  0.13103000  0.49988000  1.0
  Cl  Cl28  1  0.13103000  0.86705000  0.49988000  1.0
  Cl  Cl29  1  0.99578000  0.26239000  0.88229000  1.0
  Cl  Cl30  1  0.74012000  0.00531000  0.11835000  1.0
  Cl  Cl31  1  0.00531000  0.74012000  0.11835000  1.0
  Cl  Cl32  1  0.26239000  0.99578000  0.88229000  1.0
  O  O33  1  0.38727000  0.38726000  0.68687000  1.0
  O  O34  1  0.61269000  0.61269000  0.31293000  1.0
  O  O35  1  0.76209000  0.76209000  0.75768000  1.0
  O  O36  1  0.23795000  0.23796000  0.24265000  1.0
