# generated using pymatgen
data_CuH9C10N2Cl
_symmetry_space_group_name_H-M   'P 1'
_cell_length_a   12.36570000
_cell_length_b   15.86370000
_cell_length_c   15.86370000
_cell_angle_alpha   89.99990000
_cell_angle_beta   90.00000000
_cell_angle_gamma   90.00000000
_symmetry_Int_Tables_number   1
_chemical_formula_structural   CuH9C10N2Cl
_chemical_formula_sum   'Cu8 H72 C80 N16 Cl8'
_cell_volume   3111.91468902
_cell_formula_units_Z   8
loop_
 _symmetry_equiv_pos_site_id
 _symmetry_equiv_pos_as_xyz
  1  'x, y, z'
loop_
 _atom_site_type_symbol
 _atom_site_label
 _atom_site_symmetry_multiplicity
 _atom_site_fract_x
 _atom_site_fract_y
 _atom_site_fract_z
 _atom_site_occupancy
  Cu  Cu0  1  0.62361000  0.52076000  0.00265000  1.0
  Cu  Cu1  1  0.12361000  0.47924000  0.99735000  1.0
  Cu  Cu2  1  0.87361000  0.49735000  0.02075000  1.0
  Cu  Cu3  1  0.37361000  0.50265000  0.97924000  1.0
  Cu  Cu4  1  0.62639000  0.97930000  0.50265000  1.0
  Cu  Cu5  1  0.12639000  0.02070000  0.49735000  1.0
  Cu  Cu6  1  0.37639000  0.00265000  0.52070000  1.0
  Cu  Cu7  1  0.87639000  0.99735000  0.47930000  1.0
  H  H8  1  0.24307000  0.59477000  0.82319000  1.0
  H  H9  1  0.23854000  0.62274000  0.93019000  1.0
  H  H10  1  0.76450000  0.70940000  0.71709000  1.0
  H  H11  1  0.75461000  0.64126000  0.94641000  1.0
  H  H12  1  0.76298000  0.59989000  0.84555000  1.0
  H  H13  1  0.12817000  0.72045000  0.83952000  1.0
  H  H14  1  0.23183000  0.77532000  0.89328000  1.0
  H  H15  1  0.86904000  0.72978000  0.84814000  1.0
  H  H16  1  0.76156000  0.78845000  0.89285000  1.0
  H  H17  1  0.74307000  0.40524000  0.17682000  1.0
  H  H18  1  0.73854000  0.37726000  0.06981000  1.0
  H  H19  1  0.26450000  0.29060000  0.28291000  1.0
  H  H20  1  0.25461000  0.35874000  0.05359000  1.0
  H  H21  1  0.26298000  0.40011000  0.15445000  1.0
  H  H22  1  0.62817000  0.27955000  0.16048000  1.0
  H  H23  1  0.73183000  0.22468000  0.10672000  1.0
  H  H24  1  0.36904000  0.27022000  0.15186000  1.0
  H  H25  1  0.26156000  0.21155000  0.10715000  1.0
  H  H26  1  0.49307000  0.67681000  0.09477000  1.0
  H  H27  1  0.48854000  0.56981000  0.12274000  1.0
  H  H28  1  0.01450000  0.78291000  0.20940000  1.0
  H  H29  1  0.00461000  0.55359000  0.14126000  1.0
  H  H30  1  0.01298000  0.65445000  0.09989000  1.0
  H  H31  1  0.37817000  0.66048000  0.22046000  1.0
  H  H32  1  0.48183000  0.60672000  0.27532000  1.0
  H  H33  1  0.11904000  0.65186000  0.22978000  1.0
  H  H34  1  0.01156000  0.60715000  0.28845000  1.0
  H  H35  1  0.99307000  0.32319000  0.90523000  1.0
  H  H36  1  0.98854000  0.43019000  0.87726000  1.0
  H  H37  1  0.51450000  0.21709000  0.79060000  1.0
  H  H38  1  0.50461000  0.44641000  0.85874000  1.0
  H  H39  1  0.51298000  0.34555000  0.90011000  1.0
  H  H40  1  0.87817000  0.33952000  0.77955000  1.0
  H  H41  1  0.98183000  0.39328000  0.72468000  1.0
  H  H42  1  0.61904000  0.34814000  0.77022000  1.0
  H  H43  1  0.51156000  0.39285000  0.71155000  1.0
  H  H44  1  0.00692000  0.90524000  0.32320000  1.0
  H  H45  1  0.01147000  0.87726000  0.43020000  1.0
  H  H46  1  0.48550000  0.79061000  0.21711000  1.0
  H  H47  1  0.49538000  0.85876000  0.44643000  1.0
  H  H48  1  0.48702000  0.90012000  0.34557000  1.0
  H  H49  1  0.12184000  0.77957000  0.33952000  1.0
  H  H50  1  0.01818000  0.72468000  0.39328000  1.0
  H  H51  1  0.38096000  0.77024000  0.34816000  1.0
  H  H52  1  0.48843000  0.71156000  0.39288000  1.0
  H  H53  1  0.50692000  0.09476000  0.67680000  1.0
  H  H54  1  0.51147000  0.12274000  0.56980000  1.0
  H  H55  1  0.98550000  0.20940000  0.78289000  1.0
  H  H56  1  0.99538000  0.14124000  0.55357000  1.0
  H  H57  1  0.98702000  0.09988000  0.65443000  1.0
  H  H58  1  0.62183000  0.22043000  0.66048000  1.0
  H  H59  1  0.51818000  0.27532000  0.60672000  1.0
  H  H60  1  0.88096000  0.22976000  0.65184000  1.0
  H  H61  1  0.98843000  0.28844000  0.60712000  1.0
  H  H62  1  0.75692000  0.82320000  0.59476000  1.0
  H  H63  1  0.76147000  0.93020000  0.62274000  1.0
  H  H64  1  0.23550000  0.71711000  0.70940000  1.0
  H  H65  1  0.24538000  0.94643000  0.64124000  1.0
  H  H66  1  0.23702000  0.84557000  0.59988000  1.0
  H  H67  1  0.87183000  0.83952000  0.72044000  1.0
  H  H68  1  0.76818000  0.89328000  0.77532000  1.0
  H  H69  1  0.13096000  0.84816000  0.72976000  1.0
  H  H70  1  0.23843000  0.89288000  0.78844000  1.0
  H  H71  1  0.25692000  0.17680000  0.40524000  1.0
  H  H72  1  0.26146000  0.06980000  0.37726000  1.0
  H  H73  1  0.73550000  0.28289000  0.29061000  1.0
  H  H74  1  0.74538000  0.05357000  0.35876000  1.0
  H  H75  1  0.73702000  0.15443000  0.40012000  1.0
  H  H76  1  0.37183000  0.16048000  0.27957000  1.0
  H  H77  1  0.26818000  0.10672000  0.22468000  1.0
  H  H78  1  0.63096000  0.15184000  0.27024000  1.0
  H  H79  1  0.73843000  0.10712000  0.21156000  1.0
  C  C80  1  0.61006000  0.65341000  0.87414000  1.0
  C  C81  1  0.55746000  0.70828000  0.81584000  1.0
  C  C82  1  0.61668000  0.76080000  0.76126000  1.0
  C  C83  1  0.44181000  0.70741000  0.81452000  1.0
  C  C84  1  0.38846000  0.64927000  0.86902000  1.0
  C  C85  1  0.26758000  0.64420000  0.86838000  1.0
  C  C86  1  0.73870000  0.75978000  0.76125000  1.0
  C  C87  1  0.73083000  0.65423000  0.88099000  1.0
  C  C88  1  0.21632000  0.72830000  0.84347000  1.0
  C  C89  1  0.78060000  0.73644000  0.84909000  1.0
  C  C90  1  0.11006000  0.34659000  0.12586000  1.0
  C  C91  1  0.05746000  0.29172000  0.18416000  1.0
  C  C92  1  0.11668000  0.23919000  0.23874000  1.0
  C  C93  1  0.94181000  0.29259000  0.18548000  1.0
  C  C94  1  0.88846000  0.35073000  0.13098000  1.0
  C  C95  1  0.76757000  0.35580000  0.13163000  1.0
  C  C96  1  0.23870000  0.24021000  0.23874000  1.0
  C  C97  1  0.23083000  0.34576000  0.11901000  1.0
  C  C98  1  0.71632000  0.27170000  0.15654000  1.0
  C  C99  1  0.28060000  0.26356000  0.15091000  1.0
  C  C100  1  0.86006000  0.62586000  0.15341000  1.0
  C  C101  1  0.80747000  0.68416000  0.20828000  1.0
  C  C102  1  0.86668000  0.73874000  0.26081000  1.0
  C  C103  1  0.69181000  0.68548000  0.20741000  1.0
  C  C104  1  0.63846000  0.63098000  0.14927000  1.0
  C  C105  1  0.51758000  0.63162000  0.14420000  1.0
  C  C106  1  0.98870000  0.73875000  0.25979000  1.0
  C  C107  1  0.98083000  0.61901000  0.15423000  1.0
  C  C108  1  0.46632000  0.65653000  0.22830000  1.0
  C  C109  1  0.03060000  0.65091000  0.23644000  1.0
  C  C110  1  0.36006000  0.37414000  0.84659000  1.0
  C  C111  1  0.30747000  0.31584000  0.79172000  1.0
  C  C112  1  0.36668000  0.26126000  0.73919000  1.0
  C  C113  1  0.19181000  0.31452000  0.79259000  1.0
  C  C114  1  0.13846000  0.36902000  0.85073000  1.0
  C  C115  1  0.01758000  0.36838000  0.85580000  1.0
  C  C116  1  0.48870000  0.26126000  0.74021000  1.0
  C  C117  1  0.48083000  0.38099000  0.84577000  1.0
  C  C118  1  0.96632000  0.34346000  0.77170000  1.0
  C  C119  1  0.53060000  0.34909000  0.76356000  1.0
  C  C120  1  0.63994000  0.84660000  0.37417000  1.0
  C  C121  1  0.69253000  0.79173000  0.31587000  1.0
  C  C122  1  0.63332000  0.73920000  0.26129000  1.0
  C  C123  1  0.80819000  0.79261000  0.31454000  1.0
  C  C124  1  0.86154000  0.85074000  0.36905000  1.0
  C  C125  1  0.98242000  0.85581000  0.36840000  1.0
  C  C126  1  0.51130000  0.74022000  0.26128000  1.0
  C  C127  1  0.51917000  0.84578000  0.38101000  1.0
  C  C128  1  0.03369000  0.77171000  0.34347000  1.0
  C  C129  1  0.46940000  0.76357000  0.34912000  1.0
  C  C130  1  0.13994000  0.15340000  0.62583000  1.0
  C  C131  1  0.19253000  0.20827000  0.68413000  1.0
  C  C132  1  0.13332000  0.26080000  0.73871000  1.0
  C  C133  1  0.30819000  0.20739000  0.68546000  1.0
  C  C134  1  0.36154000  0.14926000  0.63095000  1.0
  C  C135  1  0.48242000  0.14419000  0.63160000  1.0
  C  C136  1  0.01130000  0.25978000  0.73872000  1.0
  C  C137  1  0.01917000  0.15422000  0.61899000  1.0
  C  C138  1  0.53368000  0.22829000  0.65653000  1.0
  C  C139  1  0.96940000  0.23643000  0.65088000  1.0
  C  C140  1  0.38994000  0.87417000  0.65340000  1.0
  C  C141  1  0.44253000  0.81587000  0.70827000  1.0
  C  C142  1  0.38332000  0.76129000  0.76080000  1.0
  C  C143  1  0.55819000  0.81454000  0.70739000  1.0
  C  C144  1  0.61154000  0.86905000  0.64926000  1.0
  C  C145  1  0.73242000  0.86840000  0.64419000  1.0
  C  C146  1  0.26130000  0.76128000  0.75978000  1.0
  C  C147  1  0.26917000  0.88101000  0.65422000  1.0
  C  C148  1  0.78368000  0.84347000  0.72829000  1.0
  C  C149  1  0.21940000  0.84912000  0.73643000  1.0
  C  C150  1  0.88994000  0.12583000  0.34660000  1.0
  C  C151  1  0.94253000  0.18413000  0.29173000  1.0
  C  C152  1  0.88332000  0.23871000  0.23920000  1.0
  C  C153  1  0.05819000  0.18546000  0.29261000  1.0
  C  C154  1  0.11154000  0.13095000  0.35074000  1.0
  C  C155  1  0.23242000  0.13160000  0.35581000  1.0
  C  C156  1  0.76130000  0.23872000  0.24023000  1.0
  C  C157  1  0.76917000  0.11899000  0.34578000  1.0
  C  C158  1  0.28368000  0.15653000  0.27171000  1.0
  C  C159  1  0.71940000  0.15089000  0.26358000  1.0
  N  N160  1  0.55488000  0.60054000  0.92289000  1.0
  N  N161  1  0.44298000  0.59794000  0.91978000  1.0
  N  N162  1  0.05488000  0.39946000  0.07711000  1.0
  N  N163  1  0.94297000  0.40206000  0.08022000  1.0
  N  N164  1  0.80488000  0.57711000  0.10054000  1.0
  N  N165  1  0.69298000  0.58022000  0.09794000  1.0
  N  N166  1  0.30488000  0.42289000  0.89946000  1.0
  N  N167  1  0.19298000  0.41978000  0.90206000  1.0
  N  N168  1  0.69512000  0.89948000  0.42292000  1.0
  N  N169  1  0.80703000  0.90206000  0.41981000  1.0
  N  N170  1  0.19512000  0.10052000  0.57708000  1.0
  N  N171  1  0.30703000  0.09794000  0.58019000  1.0
  N  N172  1  0.44512000  0.92292000  0.60052000  1.0
  N  N173  1  0.55703000  0.91981000  0.59794000  1.0
  N  N174  1  0.94512000  0.07708000  0.39948000  1.0
  N  N175  1  0.05703000  0.08019000  0.40206000  1.0
  Cl  Cl176  1  0.74935000  0.44149000  0.92198000  1.0
  Cl  Cl177  1  0.24935000  0.55851000  0.07802000  1.0
  Cl  Cl178  1  0.99935000  0.57802000  0.94149000  1.0
  Cl  Cl179  1  0.49935000  0.42198000  0.05851000  1.0
  Cl  Cl180  1  0.50066000  0.05854000  0.42194000  1.0
  Cl  Cl181  1  0.00066000  0.94146000  0.57806000  1.0
  Cl  Cl182  1  0.25066000  0.92194000  0.44146000  1.0
  Cl  Cl183  1  0.75066000  0.07806000  0.55854000  1.0
