# generated using pymatgen
data_ZnH13C23N3O4
_symmetry_space_group_name_H-M   'P 1'
_cell_length_a   11.67440000
_cell_length_b   15.71750000
_cell_length_c   17.96440000
_cell_angle_alpha   89.93650000
_cell_angle_beta   90.00010000
_cell_angle_gamma   89.99990000
_symmetry_Int_Tables_number   1
_chemical_formula_structural   ZnH13C23N3O4
_chemical_formula_sum   'Zn4 H52 C92 N12 O16'
_cell_volume   3296.32852276
_cell_formula_units_Z   4
loop_
 _symmetry_equiv_pos_site_id
 _symmetry_equiv_pos_as_xyz
  1  'x, y, z'
loop_
 _atom_site_type_symbol
 _atom_site_label
 _atom_site_symmetry_multiplicity
 _atom_site_fract_x
 _atom_site_fract_y
 _atom_site_fract_z
 _atom_site_occupancy
  Zn  Zn0  1  0.74506000  0.50585000  0.21747000  1.0
  Zn  Zn1  1  0.74250000  0.50543000  0.06219000  1.0
  Zn  Zn2  1  0.24506000  0.49415000  0.78253000  1.0
  Zn  Zn3  1  0.24250000  0.49457000  0.93781000  1.0
  H  H4  1  0.92802000  0.49048000  0.80532000  1.0
  H  H5  1  0.55674000  0.49682000  0.80457000  1.0
  H  H6  1  0.03280000  0.00207000  0.14996000  1.0
  H  H7  1  0.45503000  0.00970000  0.15581000  1.0
  H  H8  1  0.60140000  0.76386000  0.05470000  1.0
  H  H9  1  0.90305000  0.25606000  0.04469000  1.0
  H  H10  1  0.48091000  0.89534000  0.06080000  1.0
  H  H11  1  0.02284000  0.12439000  0.05073000  1.0
  H  H12  1  0.42507000  0.66385000  0.24540000  1.0
  H  H13  1  0.05200000  0.34197000  0.24973000  1.0
  H  H14  1  0.29605000  0.79041000  0.24637000  1.0
  H  H15  1  0.18010000  0.21467000  0.25204000  1.0
  H  H16  1  0.91982000  0.49777000  0.94389000  1.0
  H  H17  1  0.56391000  0.50222000  0.94329000  1.0
  H  H18  1  0.89254000  0.75129000  0.23655000  1.0
  H  H19  1  0.58260000  0.26671000  0.24677000  1.0
  H  H20  1  0.07589000  0.66881000  0.04186000  1.0
  H  H21  1  0.42096000  0.33764000  0.04058000  1.0
  H  H22  1  0.01546000  0.88105000  0.24326000  1.0
  H  H23  1  0.46015000  0.13647000  0.25312000  1.0
  H  H24  1  0.20297000  0.79467000  0.05114000  1.0
  H  H25  1  0.29459000  0.21149000  0.04906000  1.0
  H  H26  1  0.92296000  0.45929000  0.47381000  1.0
  H  H27  1  0.56492000  0.52841000  0.47501000  1.0
  H  H28  1  0.91764000  0.47004000  0.33480000  1.0
  H  H29  1  0.57368000  0.53488000  0.33590000  1.0
  H  H30  1  0.42802000  0.50953000  0.19468000  1.0
  H  H31  1  0.05674000  0.50317000  0.19543000  1.0
  H  H32  1  0.53280000  0.99793000  0.85004000  1.0
  H  H33  1  0.95503000  0.99030000  0.84418000  1.0
  H  H34  1  0.10140000  0.23614000  0.94530000  1.0
  H  H35  1  0.40305000  0.74394000  0.95531000  1.0
  H  H36  1  0.98091000  0.10466000  0.93921000  1.0
  H  H37  1  0.52284000  0.87561000  0.94927000  1.0
  H  H38  1  0.92507000  0.33615000  0.75459000  1.0
  H  H39  1  0.55200000  0.65803000  0.75027000  1.0
  H  H40  1  0.79605000  0.20959000  0.75363000  1.0
  H  H41  1  0.68010000  0.78533000  0.74796000  1.0
  H  H42  1  0.41982000  0.50223000  0.05611000  1.0
  H  H43  1  0.06391000  0.49777000  0.05670000  1.0
  H  H44  1  0.39254000  0.24871000  0.76345000  1.0
  H  H45  1  0.08260000  0.73329000  0.75323000  1.0
  H  H46  1  0.57589000  0.33119000  0.95814000  1.0
  H  H47  1  0.92096000  0.66236000  0.95942000  1.0
  H  H48  1  0.51546000  0.11895000  0.75674000  1.0
  H  H49  1  0.96015000  0.86352000  0.74688000  1.0
  H  H50  1  0.70297000  0.20533000  0.94886000  1.0
  H  H51  1  0.79460000  0.78851000  0.95094000  1.0
  H  H52  1  0.42296000  0.54071000  0.52619000  1.0
  H  H53  1  0.06492000  0.47159000  0.52499000  1.0
  H  H54  1  0.41764000  0.52996000  0.66520000  1.0
  H  H55  1  0.07369000  0.46512000  0.66410000  1.0
  C  C56  1  0.51975000  0.70548000  0.14909000  1.0
  C  C57  1  0.97024000  0.30689000  0.14683000  1.0
  C  C58  1  0.59410000  0.62806000  0.14631000  1.0
  C  C59  1  0.89486000  0.38371000  0.14460000  1.0
  C  C60  1  0.37904000  0.85104000  0.15285000  1.0
  C  C61  1  0.10990000  0.16100000  0.15122000  1.0
  C  C62  1  0.11788000  0.84680000  0.14779000  1.0
  C  C63  1  0.36905000  0.16509000  0.15154000  1.0
  C  C64  1  0.84571000  0.49333000  0.83371000  1.0
  C  C65  1  0.63879000  0.49667000  0.83334000  1.0
  C  C66  1  0.18594000  0.92632000  0.15132000  1.0
  C  C67  1  0.30184000  0.08513000  0.15371000  1.0
  C  C68  1  0.89761000  0.62663000  0.13646000  1.0
  C  C69  1  0.58967000  0.38477000  0.13992000  1.0
  C  C70  1  0.97612000  0.70195000  0.13914000  1.0
  C  C71  1  0.51011000  0.31015000  0.14353000  1.0
  C  C72  1  0.12622000  0.00371000  0.15135000  1.0
  C  C73  1  0.36160000  0.00791000  0.15459000  1.0
  C  C74  1  0.30698000  0.92856000  0.15307000  1.0
  C  C75  1  0.18097000  0.08294000  0.15224000  1.0
  C  C76  1  0.53559000  0.77100000  0.09725000  1.0
  C  C77  1  0.96230000  0.24557000  0.09064000  1.0
  C  C78  1  0.46766000  0.84360000  0.10038000  1.0
  C  C79  1  0.02978000  0.17274000  0.09391000  1.0
  C  C80  1  0.43478000  0.71398000  0.20386000  1.0
  C  C81  1  0.04793000  0.29462000  0.20551000  1.0
  C  C82  1  0.36361000  0.78500000  0.20470000  1.0
  C  C83  1  0.11861000  0.22334000  0.20694000  1.0
  C  C84  1  0.84153000  0.49682000  0.91095000  1.0
  C  C85  1  0.64240000  0.50053000  0.91056000  1.0
  C  C86  1  0.74237000  0.49342000  0.79395000  1.0
  C  C87  1  0.96038000  0.76197000  0.19596000  1.0
  C  C88  1  0.51952000  0.25349000  0.20362000  1.0
  C  C89  1  0.06365000  0.71458000  0.08675000  1.0
  C  C90  1  0.42842000  0.29450000  0.08792000  1.0
  C  C91  1  0.74229000  0.49044000  0.71218000  1.0
  C  C92  1  0.02920000  0.83399000  0.19953000  1.0
  C  C93  1  0.45106000  0.18123000  0.20698000  1.0
  C  C94  1  0.13481000  0.78556000  0.09189000  1.0
  C  C95  1  0.35761000  0.22338000  0.09266000  1.0
  C  C96  1  0.74307000  0.49052000  0.56803000  1.0
  C  C97  1  0.74403000  0.49391000  0.48604000  1.0
  C  C98  1  0.84415000  0.47679000  0.44571000  1.0
  C  C99  1  0.64464000  0.51509000  0.44633000  1.0
  C  C100  1  0.84184000  0.48236000  0.36856000  1.0
  C  C101  1  0.64877000  0.51873000  0.36916000  1.0
  C  C102  1  0.01975000  0.29452000  0.85091000  1.0
  C  C103  1  0.47024000  0.69311000  0.85317000  1.0
  C  C104  1  0.09410000  0.37194000  0.85369000  1.0
  C  C105  1  0.39486000  0.61629000  0.85541000  1.0
  C  C106  1  0.87904000  0.14896000  0.84715000  1.0
  C  C107  1  0.60990000  0.83900000  0.84878000  1.0
  C  C108  1  0.61788000  0.15320000  0.85221000  1.0
  C  C109  1  0.86905000  0.83491000  0.84845000  1.0
  C  C110  1  0.34571000  0.50667000  0.16629000  1.0
  C  C111  1  0.13879000  0.50333000  0.16666000  1.0
  C  C112  1  0.68594000  0.07368000  0.84868000  1.0
  C  C113  1  0.80184000  0.91487000  0.84629000  1.0
  C  C114  1  0.39761000  0.37337000  0.86354000  1.0
  C  C115  1  0.08967000  0.61523000  0.86008000  1.0
  C  C116  1  0.47612000  0.29805000  0.86086000  1.0
  C  C117  1  0.01011000  0.68985000  0.85647000  1.0
  C  C118  1  0.62622000  0.99630000  0.84866000  1.0
  C  C119  1  0.86159000  0.99209000  0.84541000  1.0
  C  C120  1  0.80698000  0.07144000  0.84693000  1.0
  C  C121  1  0.68097000  0.91706000  0.84776000  1.0
  C  C122  1  0.03559000  0.22900000  0.90275000  1.0
  C  C123  1  0.46230000  0.75443000  0.90936000  1.0
  C  C124  1  0.96766000  0.15640000  0.89962000  1.0
  C  C125  1  0.52978000  0.82726000  0.90609000  1.0
  C  C126  1  0.93478000  0.28602000  0.79613000  1.0
  C  C127  1  0.54793000  0.70538000  0.79450000  1.0
  C  C128  1  0.86361000  0.21500000  0.79530000  1.0
  C  C129  1  0.61861000  0.77666000  0.79306000  1.0
  C  C130  1  0.34153000  0.50318000  0.08905000  1.0
  C  C131  1  0.14240000  0.49947000  0.08944000  1.0
  C  C132  1  0.24237000  0.50658000  0.20605000  1.0
  C  C133  1  0.46038000  0.23802000  0.80404000  1.0
  C  C134  1  0.01951000  0.74650000  0.79638000  1.0
  C  C135  1  0.56365000  0.28542000  0.91325000  1.0
  C  C136  1  0.92842000  0.70550000  0.91208000  1.0
  C  C137  1  0.24229000  0.50956000  0.28782000  1.0
  C  C138  1  0.52920000  0.16602000  0.80047000  1.0
  C  C139  1  0.95106000  0.81877000  0.79302000  1.0
  C  C140  1  0.63481000  0.21444000  0.90811000  1.0
  C  C141  1  0.85761000  0.77662000  0.90734000  1.0
  C  C142  1  0.24307000  0.50948000  0.43197000  1.0
  C  C143  1  0.24403000  0.50609000  0.51397000  1.0
  C  C144  1  0.34415000  0.52321000  0.55429000  1.0
  C  C145  1  0.14464000  0.48491000  0.55367000  1.0
  C  C146  1  0.34184000  0.51764000  0.63144000  1.0
  C  C147  1  0.14878000  0.48127000  0.63084000  1.0
  N  N148  1  0.74185000  0.50077000  0.94856000  1.0
  N  N149  1  0.64198000  0.50533000  0.67638000  1.0
  N  N150  1  0.84175000  0.47149000  0.67691000  1.0
  N  N151  1  0.64230000  0.50461000  0.60314000  1.0
  N  N152  1  0.84223000  0.47237000  0.60358000  1.0
  N  N153  1  0.74585000  0.50297000  0.33125000  1.0
  N  N154  1  0.24185000  0.49922000  0.05144000  1.0
  N  N155  1  0.14198000  0.49468000  0.32362000  1.0
  N  N156  1  0.34175000  0.52851000  0.32309000  1.0
  N  N157  1  0.14230000  0.49539000  0.39686000  1.0
  N  N158  1  0.34223000  0.52764000  0.39642000  1.0
  N  N159  1  0.24585000  0.49703000  0.66875000  1.0
  O  O160  1  0.64331000  0.61123000  0.08465000  1.0
  O  O161  1  0.84456000  0.40065000  0.08333000  1.0
  O  O162  1  0.88678000  0.58577000  0.07550000  1.0
  O  O163  1  0.59988000  0.42502000  0.07849000  1.0
  O  O164  1  0.60306000  0.58429000  0.20594000  1.0
  O  O165  1  0.88600000  0.42706000  0.20440000  1.0
  O  O166  1  0.84563000  0.60912000  0.19711000  1.0
  O  O167  1  0.64317000  0.40243000  0.19990000  1.0
  O  O168  1  0.14331000  0.38877000  0.91534000  1.0
  O  O169  1  0.34456000  0.59935000  0.91667000  1.0
  O  O170  1  0.38678000  0.41423000  0.92450000  1.0
  O  O171  1  0.09988000  0.57498000  0.92151000  1.0
  O  O172  1  0.10306000  0.41571000  0.79405000  1.0
  O  O173  1  0.38601000  0.57294000  0.79561000  1.0
  O  O174  1  0.34563000  0.39088000  0.80289000  1.0
  O  O175  1  0.14317000  0.59757000  0.80009000  1.0
