# generated using pymatgen
data_CuH22Ru(C6N5)2
_symmetry_space_group_name_H-M   'P 1'
_cell_length_a   8.20428000
_cell_length_b   9.35003000
_cell_length_c   12.55750000
_cell_angle_alpha   89.99910000
_cell_angle_beta   89.99940000
_cell_angle_gamma   69.99200000
_symmetry_Int_Tables_number   1
_chemical_formula_structural   CuH22Ru(C6N5)2
_chemical_formula_sum   'Cu2 H44 Ru2 C24 N20'
_cell_volume   905.14968738
_cell_formula_units_Z   2
loop_
 _symmetry_equiv_pos_site_id
 _symmetry_equiv_pos_as_xyz
  1  'x, y, z'
loop_
 _atom_site_type_symbol
 _atom_site_label
 _atom_site_symmetry_multiplicity
 _atom_site_fract_x
 _atom_site_fract_y
 _atom_site_fract_z
 _atom_site_occupancy
  Cu  Cu0  1  0.00001000  0.49997000  0.00000000  1.0
  Cu  Cu1  1  0.49998000  0.00004000  0.49999000  1.0
  H  H2  1  0.59968000  0.51769000  0.94587000  1.0
  H  H3  1  0.90034000  0.98227000  0.44587000  1.0
  H  H4  1  0.40035000  0.48223000  0.05415000  1.0
  H  H5  1  0.09962000  0.01780000  0.55415000  1.0
  H  H6  1  0.68751000  0.58140000  0.83443000  1.0
  H  H7  1  0.81250000  0.91859000  0.33443000  1.0
  H  H8  1  0.31250000  0.41858000  0.16560000  1.0
  H  H9  1  0.18749000  0.08145000  0.66559000  1.0
  H  H10  1  0.62107000  0.27741000  0.84694000  1.0
  H  H11  1  0.87897000  0.22255000  0.34694000  1.0
  H  H12  1  0.37896000  0.72254000  0.15306000  1.0
  H  H13  1  0.12105000  0.77747000  0.65306000  1.0
  H  H14  1  0.71870000  0.33891000  0.73815000  1.0
  H  H15  1  0.78132000  0.16110000  0.23817000  1.0
  H  H16  1  0.28128000  0.66110000  0.26183000  1.0
  H  H17  1  0.21871000  0.83892000  0.76183000  1.0
  H  H18  1  0.34010000  0.47908000  0.81125000  1.0
  H  H19  1  0.15992000  0.02088000  0.31124000  1.0
  H  H20  1  0.65990000  0.52087000  0.18878000  1.0
  H  H21  1  0.84010000  0.97912000  0.68877000  1.0
  H  H22  1  0.43889000  0.56886000  0.71891000  1.0
  H  H23  1  0.06110000  0.93113000  0.21890000  1.0
  H  H24  1  0.56107000  0.43115000  0.28114000  1.0
  H  H25  1  0.93891000  0.06885000  0.78113000  1.0
  H  H26  1  0.94276000  0.36204000  0.85015000  1.0
  H  H27  1  0.55726000  0.13796000  0.35014000  1.0
  H  H28  1  0.05724000  0.63794000  0.14985000  1.0
  H  H29  1  0.44272000  0.86211000  0.64984000  1.0
  H  H30  1  0.86057000  0.29869000  0.95505000  1.0
  H  H31  1  0.63946000  0.20130000  0.45505000  1.0
  H  H32  1  0.13948000  0.70123000  0.04494000  1.0
  H  H33  1  0.36050000  0.79878000  0.54493000  1.0
  H  H34  1  0.29683000  0.40729000  0.63448000  1.0
  H  H35  1  0.20318000  0.09271000  0.13447000  1.0
  H  H36  1  0.70314000  0.59274000  0.36554000  1.0
  H  H37  1  0.79686000  0.90724000  0.86554000  1.0
  H  H38  1  0.44027000  0.25132000  0.69300000  1.0
  H  H39  1  0.05973000  0.24867000  0.19300000  1.0
  H  H40  1  0.55971000  0.74869000  0.30699000  1.0
  H  H41  1  0.94029000  0.75130000  0.80698000  1.0
  H  H42  1  0.51182000  0.35676000  0.60626000  1.0
  H  H43  1  0.98819000  0.14323000  0.10626000  1.0
  H  H44  1  0.48813000  0.64329000  0.39375000  1.0
  H  H45  1  0.01186000  0.85671000  0.89374000  1.0
  Ru  Ru46  1  0.50001000  0.99997000  0.00000000  1.0
  Ru  Ru47  1  0.99999000  0.50004000  0.49999000  1.0
  C  C48  1  0.68494000  0.47925000  0.87650000  1.0
  C  C49  1  0.81507000  0.02074000  0.37650000  1.0
  C  C50  1  0.31507000  0.52070000  0.12352000  1.0
  C  C51  1  0.18491000  0.97931000  0.62351000  1.0
  C  C52  1  0.62375000  0.37835000  0.80323000  1.0
  C  C53  1  0.87629000  0.12164000  0.30322000  1.0
  C  C54  1  0.37625000  0.62163000  0.19677000  1.0
  C  C55  1  0.12372000  0.87838000  0.69678000  1.0
  C  C56  1  0.44680000  0.45912000  0.75414000  1.0
  C  C57  1  0.05322000  0.04085000  0.25414000  1.0
  C  C58  1  0.55317000  0.54086000  0.24588000  1.0
  C  C59  1  0.94680000  0.95914000  0.74588000  1.0
  C  C60  1  0.31239000  0.20348000  0.99277000  1.0
  C  C61  1  0.18760000  0.29654000  0.49276000  1.0
  C  C62  1  0.68765000  0.79645000  0.00721000  1.0
  C  C63  1  0.81234000  0.70353000  0.50722000  1.0
  C  C64  1  0.31541000  0.90382000  0.97836000  1.0
  C  C65  1  0.18459000  0.59620000  0.47836000  1.0
  C  C66  1  0.68466000  0.09610000  0.02162000  1.0
  C  C67  1  0.81535000  0.40389000  0.52162000  1.0
  C  C68  1  0.50991000  0.02632000  0.83983000  1.0
  C  C69  1  0.99008000  0.47369000  0.33982000  1.0
  C  C70  1  0.49013000  0.97364000  0.16015000  1.0
  C  C71  1  0.00987000  0.52635000  0.66014000  1.0
  N  N72  1  0.86164000  0.39484000  0.91447000  1.0
  N  N73  1  0.63839000  0.10516000  0.41447000  1.0
  N  N74  1  0.13841000  0.60511000  0.08552000  1.0
  N  N75  1  0.36158000  0.89492000  0.58552000  1.0
  N  N76  1  0.41988000  0.36273000  0.66626000  1.0
  N  N77  1  0.08014000  0.13726000  0.16626000  1.0
  N  N78  1  0.58009000  0.63729000  0.33375000  1.0
  N  N79  1  0.91990000  0.86270000  0.83374000  1.0
  N  N80  1  0.19712000  0.31977000  0.98352000  1.0
  N  N81  1  0.30287000  0.18025000  0.48350000  1.0
  N  N82  1  0.80292000  0.68017000  0.01649000  1.0
  N  N83  1  0.69707000  0.81982000  0.51649000  1.0
  N  N84  1  0.20276000  0.85332000  0.96736000  1.0
  N  N85  1  0.29723000  0.64670000  0.46737000  1.0
  N  N86  1  0.79731000  0.14659000  0.03263000  1.0
  N  N87  1  0.70270000  0.35339000  0.53263000  1.0
  N  N88  1  0.50903000  0.05530000  0.74814000  1.0
  N  N89  1  0.99096000  0.44470000  0.24814000  1.0
  N  N90  1  0.49098000  0.94470000  0.25184000  1.0
  N  N91  1  0.00903000  0.55530000  0.75184000  1.0
