# generated using pymatgen
data_Zr6H24C52O37F6
_symmetry_space_group_name_H-M   'P 1'
_cell_length_a   14.75487410
_cell_length_b   14.75870000
_cell_length_c   14.76180000
_cell_angle_alpha   119.97340000
_cell_angle_beta   119.95713151
_cell_angle_gamma   89.75620501
_symmetry_Int_Tables_number   1
_chemical_formula_structural   Zr6H24C52O37F6
_chemical_formula_sum   'Zr6 H24 C52 O37 F6'
_cell_volume   2280.20365504
_cell_formula_units_Z   1
loop_
 _symmetry_equiv_pos_site_id
 _symmetry_equiv_pos_as_xyz
  1  'x, y, z'
loop_
 _atom_site_type_symbol
 _atom_site_label
 _atom_site_symmetry_multiplicity
 _atom_site_fract_x
 _atom_site_fract_y
 _atom_site_fract_z
 _atom_site_occupancy
  Zr  Zr0  1  0.62347000  0.11445000  0.48903000  1.0
  Zr  Zr1  1  0.38742000  0.87914000  0.49416000  1.0
  Zr  Zr2  1  0.62436000  0.11558000  0.72959000  1.0
  Zr  Zr3  1  0.38418000  0.87553000  0.25129000  1.0
  Zr  Zr4  1  0.38465000  0.11543000  0.49003000  1.0
  Zr  Zr5  1  0.62397000  0.87542000  0.49037000  1.0
  H  H6  1  0.59636000  0.27789000  0.67700000  1.0
  H  H7  1  0.22255000  0.90489000  0.30621000  1.0
  H  H8  1  0.60017000  0.90212000  0.68093000  1.0
  H  H9  1  0.59878000  0.89914000  0.30214000  1.0
  H  H10  1  0.63513000  0.39441000  0.46049000  1.0
  H  H11  1  0.36218000  0.41272000  0.49701000  1.0
  H  H12  1  0.63501000  0.56614000  0.46362000  1.0
  H  H13  1  0.92868000  0.15334000  0.51387000  1.0
  H  H14  1  0.93387000  0.86403000  0.51980000  1.0
  H  H15  1  0.09928000  0.15334000  0.51496000  1.0
  H  H16  1  0.08481000  0.13815000  0.22224000  1.0
  H  H17  1  0.10994000  0.86994000  0.93469000  1.0
  H  H18  1  0.91508000  0.13646000  0.05043000  1.0
  H  H19  1  0.63993000  0.56840000  0.22246000  1.0
  H  H20  1  0.34479000  0.56851000  0.93384000  1.0
  H  H21  1  0.63862000  0.39930000  0.05053000  1.0
  H  H22  1  0.35215000  0.85368000  0.92907000  1.0
  H  H23  1  0.63726000  0.14961000  0.22183000  1.0
  H  H24  1  0.35422000  0.85654000  0.76170000  1.0
  H  H25  1  0.35445000  0.65115000  0.49556000  1.0
  H  H26  1  0.17323000  0.85929000  0.52017000  1.0
  H  H27  1  0.86942000  0.86177000  0.68844000  1.0
  H  H28  1  0.33968000  0.33096000  0.68759000  1.0
  H  H29  1  0.64485000  0.15746000  0.98999000  1.0
  C  C30  1  0.49963000  0.29441000  0.48122000  1.0
  C  C31  1  0.20650000  0.00650000  0.50737000  1.0
  C  C32  1  0.50308000  0.68688000  0.48546000  1.0
  C  C33  1  0.81457000  0.00160000  0.50411000  1.0
  C  C34  1  0.80643000  0.29963000  0.79379000  1.0
  C  C35  1  0.49865000  0.99793000  0.18573000  1.0
  C  C36  1  0.20044000  0.69523000  0.19371000  1.0
  C  C37  1  0.49865000  0.99931000  0.79644000  1.0
  C  C38  1  0.49913000  0.29530000  0.79834000  1.0
  C  C39  1  0.81536000  0.00228000  0.79894000  1.0
  C  C40  1  0.49735000  0.68417000  0.18835000  1.0
  C  C41  1  0.20524000  0.00106000  0.18836000  1.0
  C  C42  1  0.49934000  0.58522000  0.48160000  1.0
  C  C43  1  0.49884000  0.39443000  0.47927000  1.0
  C  C44  1  0.42043000  0.54104000  0.48996000  1.0
  C  C45  1  0.57641000  0.43671000  0.46932000  1.0
  C  C46  1  0.42184000  0.44578000  0.48931000  1.0
  C  C47  1  0.57603000  0.53120000  0.47089000  1.0
  C  C48  1  0.11114000  0.00878000  0.51609000  1.0
  C  C49  1  0.92055000  0.00740000  0.51444000  1.0
  C  C50  1  0.06544000  0.92737000  0.52039000  1.0
  C  C51  1  0.96774000  0.09096000  0.51537000  1.0
  C  C52  1  0.96974000  0.92769000  0.51898000  1.0
  C  C53  1  0.06180000  0.09070000  0.51597000  1.0
  C  C54  1  0.91710000  0.00295000  0.89736000  1.0
  C  C55  1  0.10647000  0.00364000  0.08777000  1.0
  C  C56  1  0.97288000  0.92689000  0.86376000  1.0
  C  C57  1  0.05263000  0.08011000  0.12201000  1.0
  C  C58  1  0.06753000  0.92842000  0.96037000  1.0
  C  C59  1  0.95911000  0.07899000  0.02709000  1.0
  C  C60  1  0.49290000  0.39000000  0.89674000  1.0
  C  C61  1  0.49322000  0.57893000  0.08758000  1.0
  C  C62  1  0.40721000  0.43663000  0.86299000  1.0
  C  C63  1  0.57592000  0.53079000  0.12194000  1.0
  C  C64  1  0.40898000  0.53147000  0.95978000  1.0
  C  C65  1  0.57500000  0.43755000  0.02685000  1.0
  C  C66  1  0.90218000  0.40678000  0.89763000  1.0
  C  C67  1  0.89146000  0.51214000  0.92564000  1.0
  C  C68  1  0.00466000  0.40108000  0.96832000  1.0
  C  C69  1  0.78844000  0.52633000  0.86160000  1.0
  C  C70  1  0.77870000  0.62783000  0.88649000  1.0
  C  C71  1  0.09346000  0.59932000  0.09369000  1.0
  C  C72  1  0.09925000  0.49634000  0.06537000  1.0
  C  C73  1  0.98859000  0.60987000  0.02512000  1.0
  C  C74  1  0.97433000  0.71324000  0.05168000  1.0
  C  C75  1  0.87339000  0.72303000  0.98329000  1.0
  C  C76  1  0.49658000  0.00332000  0.89703000  1.0
  C  C77  1  0.49541000  0.00112000  0.08478000  1.0
  C  C78  1  0.57679000  0.08828000  0.02850000  1.0
  C  C79  1  0.41403000  0.91825000  0.95492000  1.0
  C  C80  1  0.57510000  0.08564000  0.12119000  1.0
  C  C81  1  0.41547000  0.92010000  0.86288000  1.0
  O  O82  1  0.57632000  0.25399000  0.48087000  1.0
  O  O83  1  0.24679000  0.92739000  0.50468000  1.0
  O  O84  1  0.42647000  0.72980000  0.48787000  1.0
  O  O85  1  0.77166000  0.07578000  0.49884000  1.0
  O  O86  1  0.77026000  0.25927000  0.83259000  1.0
  O  O87  1  0.42411000  0.91951000  0.14923000  1.0
  O  O88  1  0.23973000  0.72863000  0.15244000  1.0
  O  O89  1  0.57711000  0.07564000  0.83266000  1.0
  O  O90  1  0.42396000  0.25736000  0.68009000  1.0
  O  O91  1  0.77430000  0.92401000  0.68056000  1.0
  O  O92  1  0.57756000  0.72688000  0.30451000  1.0
  O  O93  1  0.24320000  0.07613000  0.30481000  1.0
  O  O94  1  0.77164000  0.07600000  0.83336000  1.0
  O  O95  1  0.42206000  0.72608000  0.15184000  1.0
  O  O96  1  0.24442000  0.92311000  0.15170000  1.0
  O  O97  1  0.57782000  0.25676000  0.83290000  1.0
  O  O98  1  0.77235000  0.26014000  0.67973000  1.0
  O  O99  1  0.42579000  0.92116000  0.67984000  1.0
  O  O100  1  0.24097000  0.73207000  0.30918000  1.0
  O  O101  1  0.57698000  0.07272000  0.30190000  1.0
  O  O102  1  0.77223000  0.92164000  0.49821000  1.0
  O  O103  1  0.42468000  0.25668000  0.48520000  1.0
  O  O104  1  0.24343000  0.07881000  0.50021000  1.0
  O  O105  1  0.58052000  0.72888000  0.48832000  1.0
  O  O106  1  0.57166000  0.92662000  0.35561000  1.0
  O  O107  1  0.57333000  0.92903000  0.62734000  1.0
  O  O108  1  0.30287000  0.92972000  0.35866000  1.0
  O  O109  1  0.57134000  0.19758000  0.62501000  1.0
  O  O110  1  0.45551000  0.04681000  0.59215000  1.0
  O  O111  1  0.45480000  0.04421000  0.39147000  1.0
  O  O112  1  0.45504000  0.84693000  0.39293000  1.0
  O  O113  1  0.65314000  0.04503000  0.58983000  1.0
  O  O114  1  0.34372000  0.58679000  0.49951000  1.0
  O  O115  1  0.10882000  0.84772000  0.52391000  1.0
  O  O116  1  0.93890000  0.85221000  0.74212000  1.0
  O  O117  1  0.32391000  0.39457000  0.74104000  1.0
  O  O118  1  0.65600000  0.17183000  0.06916000  1.0
  F  F119  1  0.19748000  0.48370000  0.12822000  1.0
  F  F120  1  0.01749000  0.30254000  0.94391000  1.0
  F  F121  1  0.06120000  0.80888000  0.14981000  1.0
  F  F122  1  0.86314000  0.82237000  0.01003000  1.0
  F  F123  1  0.67977000  0.63799000  0.82257000  1.0
  F  F124  1  0.69309000  0.43872000  0.77329000  1.0
