# generated using pymatgen
data_Zn2H26C36N10OF2
_symmetry_space_group_name_H-M   'P 1'
_cell_length_a   20.09050000
_cell_length_b   20.22530000
_cell_length_c   20.23970000
_cell_angle_alpha   105.32300000
_cell_angle_beta   113.04600000
_cell_angle_gamma   108.74600000
_symmetry_Int_Tables_number   1
_chemical_formula_structural   Zn2H26C36N10OF2
_chemical_formula_sum   'Zn4 H52 C72 N20 O2 F4'
_cell_volume   6408.19804951
_cell_formula_units_Z   2
loop_
 _symmetry_equiv_pos_site_id
 _symmetry_equiv_pos_as_xyz
  1  'x, y, z'
loop_
 _atom_site_type_symbol
 _atom_site_label
 _atom_site_symmetry_multiplicity
 _atom_site_fract_x
 _atom_site_fract_y
 _atom_site_fract_z
 _atom_site_occupancy
  Zn  Zn0  1  0.59617000  0.50592000  0.59973000  1.0
  Zn  Zn1  1  0.38937000  0.50552000  0.39089000  1.0
  Zn  Zn2  1  0.58957000  0.60955000  0.49768000  1.0
  Zn  Zn3  1  0.39545000  0.39607000  0.48520000  1.0
  H  H4  1  0.35352000  0.51734000  0.22077000  1.0
  H  H5  1  0.57127000  0.68448000  0.99190000  1.0
  H  H6  1  0.20363000  0.48585000  0.34190000  1.0
  H  H7  1  0.46825000  0.66537000  0.95796000  1.0
  H  H8  1  0.50130000  0.67912000  0.08744000  1.0
  H  H9  1  0.51908000  0.47213000  0.91095000  1.0
  H  H10  1  0.60022000  0.56843000  0.97893000  1.0
  H  H11  1  0.49188000  0.45500000  0.01003000  1.0
  H  H12  1  0.37271000  0.44784000  0.86219000  1.0
  H  H13  1  0.35929000  0.46321000  0.97508000  1.0
  H  H14  1  0.58860000  0.53916000  0.07982000  1.0
  H  H15  1  0.64377000  0.52927000  0.38282000  1.0
  H  H16  1  0.92903000  0.53536000  0.50392000  1.0
  H  H17  1  0.60817000  0.75751000  0.62977000  1.0
  H  H18  1  0.04241000  0.51640000  0.51848000  1.0
  H  H19  1  0.91567000  0.29751000  0.40120000  1.0
  H  H20  1  0.90238000  0.41117000  0.51817000  1.0
  H  H21  1  0.82333000  0.32045000  0.43597000  1.0
  H  H22  1  0.92243000  0.41742000  0.29382000  1.0
  H  H23  1  0.89114000  0.32081000  0.28223000  1.0
  H  H24  1  0.79710000  0.40110000  0.28250000  1.0
  H  H25  1  0.02577000  0.53378000  0.43415000  1.0
  H  H26  1  0.39629000  0.25610000  0.36410000  1.0
  H  H27  1  0.77680000  0.31391000  0.29307000  1.0
  H  H28  1  0.59496000  0.85459000  0.71091000  1.0
  H  H29  1  0.58937000  0.97876000  0.75086000  1.0
  H  H30  1  0.64343000  0.19031000  0.77204000  1.0
  H  H31  1  0.64301000  0.29973000  0.73810000  1.0
  H  H32  1  0.33399000  0.73192000  0.53567000  1.0
  H  H33  1  0.37889000  0.06778000  0.63670000  1.0
  H  H34  1  0.32932000  0.85650000  0.57880000  1.0
  H  H35  1  0.37706000  0.17734000  0.60449000  1.0
  H  H36  1  0.35834000  0.15273000  0.24618000  1.0
  H  H37  1  0.38782000  0.40102000  0.23991000  1.0
  H  H38  1  0.34229000  0.61496000  0.49568000  1.0
  H  H39  1  0.26180000  0.03215000  0.11766000  1.0
  H  H40  1  0.07019000  0.82615000  0.96164000  1.0
  H  H41  1  0.93017000  0.71827000  0.85301000  1.0
  H  H42  1  0.31960000  0.29122000  0.11958000  1.0
  H  H43  1  0.22524000  0.17037000  0.99148000  1.0
  H  H44  1  0.90298000  0.86595000  0.73423000  1.0
  H  H45  1  0.61519000  0.62180000  0.75259000  1.0
  H  H46  1  0.20830000  0.33463000  0.45813000  1.0
  H  H47  1  0.78116000  0.76520000  0.62821000  1.0
  H  H48  1  0.65314000  0.39392000  0.51717000  1.0
  H  H49  1  0.63767000  0.40031000  0.69812000  1.0
  H  H50  1  0.03146000  0.42210000  0.55663000  1.0
  H  H51  1  0.10331000  0.01823000  0.89094000  1.0
  H  H52  1  0.37455000  0.25067000  0.53706000  1.0
  H  H53  1  0.61993000  0.64298000  0.35543000  1.0
  H  H54  1  0.36374000  0.55479000  0.99000000  1.0
  H  H55  1  0.34865000  0.52456000  0.86266000  1.0
  C  C56  1  0.77163000  0.65310000  0.71689000  1.0
  C  C57  1  0.64351000  0.43183000  0.48942000  1.0
  C  C58  1  0.43844000  0.29591000  0.57132000  1.0
  C  C59  1  0.21758000  0.44993000  0.37094000  1.0
  C  C60  1  0.55496000  0.61239000  0.33487000  1.0
  C  C61  1  0.50755000  0.30204000  0.63402000  1.0
  C  C62  1  0.48648000  0.57679000  0.25634000  1.0
  C  C63  1  0.66955000  0.45062000  0.43844000  1.0
  C  C64  1  0.38117000  0.29954000  0.26949000  1.0
  C  C65  1  0.39227000  0.50893000  0.89903000  1.0
  C  C66  1  0.51216000  0.64418000  0.98125000  1.0
  C  C67  1  0.17376000  0.40787000  0.39892000  1.0
  C  C68  1  0.52473000  0.64452000  0.06097000  1.0
  C  C69  1  0.48549000  0.56969000  0.18476000  1.0
  C  C70  1  0.47993000  0.56088000  0.91869000  1.0
  C  C71  1  0.54411000  0.71275000  0.59022000  1.0
  C  C72  1  0.39333000  0.51966000  0.97799000  1.0
  C  C73  1  0.48326000  0.56026000  0.04989000  1.0
  C  C74  1  0.52801000  0.51700000  0.02708000  1.0
  C  C75  1  0.53632000  0.52783000  0.95739000  1.0
  C  C76  1  0.48443000  0.56238000  0.12267000  1.0
  C  C77  1  0.47953000  0.56207000  0.84712000  1.0
  C  C78  1  0.47213000  0.71541000  0.58197000  1.0
  C  C79  1  0.48165000  0.56149000  0.78771000  1.0
  C  C80  1  0.99665000  0.49498000  0.45490000  1.0
  C  C81  1  0.94235000  0.35893000  0.44312000  1.0
  C  C82  1  0.87614000  0.37487000  0.45399000  1.0
  C  C83  1  0.41882000  0.49924000  0.63780000  1.0
  C  C84  1  0.72347000  0.43207000  0.41894000  1.0
  C  C85  1  0.97444000  0.41010000  0.40561000  1.0
  C  C86  1  0.91941000  0.50030000  0.44597000  1.0
  C  C87  1  0.84560000  0.41772000  0.40549000  1.0
  C  C88  1  0.82415000  0.37456000  0.31861000  1.0
  C  C89  1  0.48371000  0.55135000  0.71716000  1.0
  C  C90  1  0.90231000  0.37851000  0.31889000  1.0
  C  C91  1  0.77647000  0.42297000  0.40903000  1.0
  C  C92  1  0.04487000  0.40700000  0.40378000  1.0
  C  C93  1  0.10349000  0.40594000  0.39998000  1.0
  C  C94  1  0.50993000  0.24525000  0.66547000  1.0
  C  C95  1  0.40840000  0.64033000  0.52125000  1.0
  C  C96  1  0.43590000  0.18040000  0.64080000  1.0
  C  C97  1  0.43617000  0.11926000  0.65910000  1.0
  C  C98  1  0.51155000  0.12123000  0.70415000  1.0
  C  C99  1  0.58556000  0.18879000  0.73573000  1.0
  C  C100  1  0.57257000  0.37179000  0.65297000  1.0
  C  C101  1  0.58472000  0.24964000  0.71635000  1.0
  C  C102  1  0.53383000  0.92406000  0.70461000  1.0
  C  C103  1  0.53638000  0.85452000  0.68126000  1.0
  C  C104  1  0.45917000  0.92548000  0.66536000  1.0
  C  C105  1  0.46556000  0.78414000  0.61768000  1.0
  C  C106  1  0.39006000  0.78526000  0.58414000  1.0
  C  C107  1  0.55120000  0.57983000  0.70716000  1.0
  C  C108  1  0.38684000  0.85462000  0.60778000  1.0
  C  C109  1  0.90582000  0.78409000  0.78537000  1.0
  C  C110  1  0.93879000  0.85500000  0.78249000  1.0
  C  C111  1  0.41881000  0.54844000  0.26601000  1.0
  C  C112  1  0.01801000  0.91531000  0.84237000  1.0
  C  C113  1  0.06618000  0.90507000  0.90919000  1.0
  C  C114  1  0.03262000  0.83269000  0.91031000  1.0
  C  C115  1  0.95463000  0.77314000  0.85007000  1.0
  C  C116  1  0.27563000  0.08932000  0.11897000  1.0
  C  C117  1  0.32913000  0.15714000  0.19055000  1.0
  C  C118  1  0.23466000  0.09362000  0.04690000  1.0
  C  C119  1  0.21959000  0.37206000  0.42970000  1.0
  C  C120  1  0.34301000  0.23129000  0.19358000  1.0
  C  C121  1  0.30846000  0.23491000  0.11995000  1.0
  C  C122  1  0.63880000  0.50128000  0.42087000  1.0
  C  C123  1  0.25539000  0.16737000  0.04783000  1.0
  C  C124  1  0.76908000  0.72245000  0.65089000  1.0
  C  C125  1  0.82206000  0.72385000  0.72272000  1.0
  C  C126  1  0.39778000  0.30142000  0.34462000  1.0
  C  C127  1  0.39275000  0.37512000  0.28107000  1.0
  N  N128  1  0.69735000  0.61360000  0.65019000  1.0
  N  N129  1  0.45149000  0.99312000  0.67125000  1.0
  N  N130  1  0.14033000  0.96374000  0.97679000  1.0
  N  N131  1  0.28408000  0.44023000  0.38461000  1.0
  N  N132  1  0.16811000  0.02962000  0.97466000  1.0
  N  N133  1  0.52384000  0.64255000  0.53750000  1.0
  N  N134  1  0.44388000  0.49533000  0.58544000  1.0
  N  N135  1  0.44053000  0.59795000  0.49521000  1.0
  N  N136  1  0.52699000  0.54571000  0.62893000  1.0
  N  N137  1  0.28537000  0.39182000  0.42136000  1.0
  N  N138  1  0.69585000  0.65747000  0.60818000  1.0
  N  N139  1  0.44500000  0.56522000  0.34349000  1.0
  N  N140  1  0.54424000  0.40404000  0.60556000  1.0
  N  N141  1  0.59951000  0.51260000  0.45996000  1.0
  N  N142  1  0.41550000  0.37169000  0.39508000  1.0
  N  N143  1  0.41235000  0.41698000  0.35597000  1.0
  N  N144  1  0.60228000  0.46985000  0.50189000  1.0
  N  N145  1  0.46055000  0.35652000  0.55457000  1.0
  N  N146  1  0.52984000  0.60505000  0.38639000  1.0
  N  N147  1  0.51927000  0.05670000  0.71255000  1.0
  O  O148  1  0.00548000  0.36872000  0.51581000  1.0
  O  O149  1  0.04677000  0.98267000  0.83796000  1.0
  F  F150  1  0.78865000  0.62231000  0.76909000  1.0
  F  F151  1  0.61051000  0.68068000  0.11792000  1.0
  F  F152  1  0.90012000  0.53931000  0.39811000  1.0
  F  F153  1  0.33982000  0.45462000  0.61292000  1.0
