# generated using pymatgen
data_AlH3C8NO7F
_symmetry_space_group_name_H-M   'P 1'
_cell_length_a   6.62951000
_cell_length_b   8.85111000
_cell_length_c   11.05763754
_cell_angle_alpha   86.12003675
_cell_angle_beta   73.59101615
_cell_angle_gamma   75.77390000
_symmetry_Int_Tables_number   1
_chemical_formula_structural   AlH3C8NO7F
_chemical_formula_sum   'Al2 H6 C16 N2 O14 F2'
_cell_volume   603.32968157
_cell_formula_units_Z   2
loop_
 _symmetry_equiv_pos_site_id
 _symmetry_equiv_pos_as_xyz
  1  'x, y, z'
loop_
 _atom_site_type_symbol
 _atom_site_label
 _atom_site_symmetry_multiplicity
 _atom_site_fract_x
 _atom_site_fract_y
 _atom_site_fract_z
 _atom_site_occupancy
  Al  Al0  1  0.99740000  0.49088000  0.50179000  1.0
  Al  Al1  1  0.49750000  0.49312000  0.50332000  1.0
  H  H2  1  0.84844000  0.38512000  0.35895000  1.0
  H  H3  1  0.15371000  0.67619000  0.56815000  1.0
  H  H4  1  0.52456000  0.74281000  0.23021000  1.0
  H  H5  1  0.74397000  0.91884000  0.10969000  1.0
  H  H6  1  0.82084000  0.68932000  0.76343000  1.0
  H  H7  1  0.89261000  0.89197000  0.87598000  1.0
  C  C8  1  0.34035000  0.51260000  0.27529000  1.0
  C  C9  1  0.34525000  0.21615000  0.50591000  1.0
  C  C10  1  0.65982000  0.46891000  0.72723000  1.0
  C  C11  1  0.64702000  0.77371000  0.50285000  1.0
  C  C12  1  0.59414000  0.94704000  0.50483000  1.0
  C  C13  1  0.39931000  0.04266000  0.50494000  1.0
  C  C14  1  0.41287000  0.51064000  0.13358000  1.0
  C  C15  1  0.54507000  0.61122000  0.06640000  1.0
  C  C16  1  0.36557000  0.40174000  0.06884000  1.0
  C  C17  1  0.58935000  0.72939000  0.12845000  1.0
  C  C18  1  0.71266000  0.82779000  0.06077000  1.0
  C  C19  1  0.58697000  0.47626000  0.86932000  1.0
  C  C20  1  0.45905000  0.38019000  0.93775000  1.0
  C  C21  1  0.63033000  0.59553000  0.93172000  1.0
  C  C22  1  0.75514000  0.70008000  0.86515000  1.0
  C  C23  1  0.79624000  0.81292000  0.92849000  1.0
  N  N24  1  0.42646000  0.25142000  0.87369000  1.0
  N  N25  1  0.23160000  0.29629000  0.14206000  1.0
  O  O26  1  0.13908000  0.53349000  0.32776000  1.0
  O  O27  1  0.48248000  0.28183000  0.52558000  1.0
  O  O28  1  0.50745000  0.50043000  0.67437000  1.0
  O  O29  1  0.82785000  0.70579000  0.52201000  1.0
  O  O30  1  0.86028000  0.44601000  0.67370000  1.0
  O  O31  1  0.50703000  0.70962000  0.48381000  1.0
  O  O32  1  0.49102000  0.48767000  0.32912000  1.0
  O  O33  1  0.16593000  0.28203000  0.48475000  1.0
  O  O34  1  0.79499000  0.43129000  0.44293000  1.0
  O  O35  1  0.19737000  0.56376000  0.55675000  1.0
  O  O36  1  0.57812000  0.18802000  0.78460000  1.0
  O  O37  1  0.25122000  0.21370000  0.91416000  1.0
  O  O38  1  0.03326000  0.34452000  0.16739000  1.0
  O  O39  1  0.33079000  0.17085000  0.17578000  1.0
  F  F40  1  0.75937000  0.00734000  0.50806000  1.0
  F  F41  1  0.23367000  0.98195000  0.50203000  1.0
