# generated using pymatgen
data_Zn4H32C40N12O13
_symmetry_space_group_name_H-M   'P 1'
_cell_length_a   23.81295736
_cell_length_b   23.81250000
_cell_length_c   23.81170000
_cell_angle_alpha   112.90960000
_cell_angle_beta   107.78485579
_cell_angle_gamma   107.77826468
_symmetry_Int_Tables_number   1
_chemical_formula_structural   Zn4H32C40N12O13
_chemical_formula_sum   'Zn8 H64 C80 N24 O26'
_cell_volume   10365.42581910
_cell_formula_units_Z   2
loop_
 _symmetry_equiv_pos_site_id
 _symmetry_equiv_pos_as_xyz
  1  'x, y, z'
loop_
 _atom_site_type_symbol
 _atom_site_label
 _atom_site_symmetry_multiplicity
 _atom_site_fract_x
 _atom_site_fract_y
 _atom_site_fract_z
 _atom_site_occupancy
  Zn  Zn0  1  0.94271000  0.90029000  0.45670000  1.0
  Zn  Zn1  1  0.94272000  0.04243000  0.48599000  1.0
  Zn  Zn2  1  0.05729000  0.04328000  0.59972000  1.0
  Zn  Zn3  1  0.05728000  0.01401000  0.45757000  1.0
  Zn  Zn4  1  0.05643000  0.59974000  0.04243000  1.0
  Zn  Zn5  1  0.94357000  0.45757000  0.90027000  1.0
  Zn  Zn6  1  0.05643000  0.45674000  0.01401000  1.0
  Zn  Zn7  1  0.94357000  0.48601000  0.04328000  1.0
  H  H8  1  0.06589000  0.72973000  0.96574000  1.0
  H  H9  1  0.93404000  0.53417000  0.77021000  1.0
  H  H10  1  0.08454000  0.96179000  0.72480000  1.0
  H  H11  1  0.91552000  0.77513000  0.53809000  1.0
  H  H12  1  0.93406000  0.39989000  0.16382000  1.0
  H  H13  1  0.06592000  0.33622000  0.10014000  1.0
  H  H14  1  0.91550000  0.14037000  0.37735000  1.0
  H  H15  1  0.08452000  0.12270000  0.35969000  1.0
  H  H16  1  0.26300000  0.72490000  0.14038000  1.0
  H  H17  1  0.26299000  0.53822000  0.12271000  1.0
  H  H18  1  0.73609000  0.96582000  0.39989000  1.0
  H  H19  1  0.73601000  0.77025000  0.33623000  1.0
  H  H20  1  0.73699000  0.35963000  0.77512000  1.0
  H  H21  1  0.73702000  0.37732000  0.96182000  1.0
  H  H22  1  0.26393000  0.10012000  0.53420000  1.0
  H  H23  1  0.26398000  0.16384000  0.72976000  1.0
  H  H24  1  0.08103000  0.92515000  0.33127000  1.0
  H  H25  1  0.08978000  0.89297000  0.25812000  1.0
  H  H26  1  0.90617000  0.57489000  0.15592000  1.0
  H  H27  1  0.86519000  0.60706000  0.19684000  1.0
  H  H28  1  0.09385000  0.74976000  0.16872000  1.0
  H  H29  1  0.13483000  0.83167000  0.24185000  1.0
  H  H30  1  0.91896000  0.75028000  0.34409000  1.0
  H  H31  1  0.91021000  0.66838000  0.30319000  1.0
  H  H32  1  0.08102000  0.15589000  0.74976000  1.0
  H  H33  1  0.08980000  0.19683000  0.83168000  1.0
  H  H34  1  0.90615000  0.33128000  0.75023000  1.0
  H  H35  1  0.86518000  0.25816000  0.66834000  1.0
  H  H36  1  0.09383000  0.34409000  0.92515000  1.0
  H  H37  1  0.13483000  0.30318000  0.89300000  1.0
  H  H38  1  0.91896000  0.16871000  0.57486000  1.0
  H  H39  1  0.91021000  0.24186000  0.60702000  1.0
  H  H40  1  0.94206000  0.61366000  0.66749000  1.0
  H  H41  1  0.91137000  0.53779000  0.66493000  1.0
  H  H42  1  0.05800000  0.83242000  0.88621000  1.0
  H  H43  1  0.08862000  0.83498000  0.96207000  1.0
  H  H44  1  0.89487000  0.67925000  0.62459000  1.0
  H  H45  1  0.86359000  0.67672000  0.54880000  1.0
  H  H46  1  0.10527000  0.87526000  0.82064000  1.0
  H  H47  1  0.13648000  0.95112000  0.82327000  1.0
  H  H48  1  0.05796000  0.22554000  0.17167000  1.0
  H  H49  1  0.08860000  0.25364000  0.12647000  1.0
  H  H50  1  0.94200000  0.32833000  0.27447000  1.0
  H  H51  1  0.91138000  0.37355000  0.24638000  1.0
  H  H52  1  0.10520000  0.22990000  0.28451000  1.0
  H  H53  1  0.13646000  0.18534000  0.31321000  1.0
  H  H54  1  0.89478000  0.21550000  0.27011000  1.0
  H  H55  1  0.86355000  0.18683000  0.31470000  1.0
  H  H56  1  0.44536000  0.62473000  0.23003000  1.0
  H  H57  1  0.37212000  0.54889000  0.18537000  1.0
  H  H58  1  0.44539000  0.82077000  0.21564000  1.0
  H  H59  1  0.37213000  0.82330000  0.18687000  1.0
  H  H60  1  0.55379000  0.66758000  0.22563000  1.0
  H  H61  1  0.62710000  0.66503000  0.25370000  1.0
  H  H62  1  0.55387000  0.88636000  0.32844000  1.0
  H  H63  1  0.62718000  0.96221000  0.37362000  1.0
  H  H64  1  0.55467000  0.27002000  0.87531000  1.0
  H  H65  1  0.62792000  0.31469000  0.95116000  1.0
  H  H66  1  0.55460000  0.28436000  0.67925000  1.0
  H  H67  1  0.62785000  0.31313000  0.67670000  1.0
  H  H68  1  0.44620000  0.27440000  0.83245000  1.0
  H  H69  1  0.37290000  0.24636000  0.83501000  1.0
  H  H70  1  0.44613000  0.17157000  0.61367000  1.0
  H  H71  1  0.37282000  0.12640000  0.53783000  1.0
  C  C72  1  0.81722000  0.90862000  0.40861000  1.0
  C  C73  1  0.99996000  0.13920000  0.63922000  1.0
  C  C74  1  0.00002000  0.90907000  0.59088000  1.0
  C  C75  1  0.18278000  0.09140000  0.59141000  1.0
  C  C76  1  0.99997000  0.86078000  0.36074000  1.0
  C  C77  1  0.00001000  0.09094000  0.40912000  1.0
  C  C78  1  0.99998000  0.59139000  0.90858000  1.0
  C  C79  1  0.00001000  0.36077000  0.86078000  1.0
  C  C80  1  0.18182000  0.59096000  0.09094000  1.0
  C  C81  1  0.00000000  0.40864000  0.09140000  1.0
  C  C82  1  1.00000000  0.63925000  0.13924000  1.0
  C  C83  1  0.81818000  0.40908000  0.90907000  1.0
  C  C84  1  0.99999000  0.80463000  0.30462000  1.0
  C  C85  1  0.00001000  0.69540000  0.19539000  1.0
  C  C86  1  0.04288000  0.82061000  0.27604000  1.0
  C  C87  1  0.95546000  0.67943000  0.22230000  1.0
  C  C88  1  0.04456000  0.76685000  0.22398000  1.0
  C  C89  1  0.95713000  0.73318000  0.27772000  1.0
  C  C90  1  0.99999000  0.19537000  0.69538000  1.0
  C  C91  1  0.00001000  0.30463000  0.80463000  1.0
  C  C92  1  0.04287000  0.22228000  0.76686000  1.0
  C  C93  1  0.95544000  0.27603000  0.73315000  1.0
  C  C94  1  0.04454000  0.27771000  0.82059000  1.0
  C  C95  1  0.95712000  0.22395000  0.67940000  1.0
  C  C96  1  0.99996000  0.62896000  0.87096000  1.0
  C  C97  1  0.03738000  0.70172000  0.90915000  1.0
  C  C98  1  0.03734000  0.73758000  0.87461000  1.0
  C  C99  1  0.00002000  0.69935000  0.80052000  1.0
  C  C100  1  0.96265000  0.62527000  0.76231000  1.0
  C  C101  1  0.96256000  0.59075000  0.79820000  1.0
  C  C102  1  0.00007000  0.73470000  0.76512000  1.0
  C  C103  1  0.00011000  0.76561000  0.73417000  1.0
  C  C104  1  0.00011000  0.80098000  0.69881000  1.0
  C  C105  1  0.04903000  0.87233000  0.73431000  1.0
  C  C106  1  0.04803000  0.90712000  0.69870000  1.0
  C  C107  1  0.00004000  0.87146000  0.62845000  1.0
  C  C108  1  0.95208000  0.80119000  0.59275000  1.0
  C  C109  1  0.95113000  0.76553000  0.62750000  1.0
  C  C110  1  0.99999000  0.37104000  0.12898000  1.0
  C  C111  1  0.96257000  0.37182000  0.16433000  1.0
  C  C112  1  0.96264000  0.33735000  0.20026000  1.0
  C  C113  1  0.99999000  0.30062000  0.19941000  1.0
  C  C114  1  0.03733000  0.29976000  0.16266000  1.0
  C  C115  1  0.03740000  0.33569000  0.12820000  1.0
  C  C116  1  0.00000000  0.26524000  0.23478000  1.0
  C  C117  1  0.00000000  0.23431000  0.26572000  1.0
  C  C118  1  1.00000000  0.19894000  0.30109000  1.0
  C  C119  1  0.95106000  0.18548000  0.32347000  1.0
  C  C120  1  0.95204000  0.15082000  0.35923000  1.0
  C  C121  1  0.00001000  0.12854000  0.37153000  1.0
  C  C122  1  0.04797000  0.14081000  0.34922000  1.0
  C  C123  1  0.04895000  0.17657000  0.31456000  1.0
  C  C124  1  0.25700000  0.62857000  0.12858000  1.0
  C  C125  1  0.29158000  0.69884000  0.15088000  1.0
  C  C126  1  0.36200000  0.73449000  0.18560000  1.0
  C  C127  1  0.39784000  0.69903000  0.19913000  1.0
  C  C128  1  0.36199000  0.62768000  0.17669000  1.0
  C  C129  1  0.29158000  0.59290000  0.14088000  1.0
  C  C130  1  0.46858000  0.73440000  0.23452000  1.0
  C  C131  1  0.53044000  0.76530000  0.26538000  1.0
  C  C132  1  0.60119000  0.80064000  0.30071000  1.0
  C  C133  1  0.63708000  0.87473000  0.33742000  1.0
  C  C134  1  0.70747000  0.90923000  0.37183000  1.0
  C  C135  1  0.74203000  0.87103000  0.37106000  1.0
  C  C136  1  0.70745000  0.79827000  0.33574000  1.0
  C  C137  1  0.63705000  0.76242000  0.29983000  1.0
  C  C138  1  0.74300000  0.37145000  0.87145000  1.0
  C  C139  1  0.70841000  0.34913000  0.80118000  1.0
  C  C140  1  0.63799000  0.31440000  0.76552000  1.0
  C  C141  1  0.60217000  0.30089000  0.80100000  1.0
  C  C142  1  0.63803000  0.32333000  0.87235000  1.0
  C  C143  1  0.70844000  0.35916000  0.90714000  1.0
  C  C144  1  0.53143000  0.26550000  0.76564000  1.0
  C  C145  1  0.46956000  0.23463000  0.73474000  1.0
  C  C146  1  0.39882000  0.19933000  0.69940000  1.0
  C  C147  1  0.36292000  0.16260000  0.62531000  1.0
  C  C148  1  0.29253000  0.12817000  0.59079000  1.0
  C  C149  1  0.25798000  0.12897000  0.62900000  1.0
  C  C150  1  0.29256000  0.16433000  0.70176000  1.0
  C  C151  1  0.36295000  0.20022000  0.73761000  1.0
  N  N152  1  0.08733000  0.88811000  0.29809000  1.0
  N  N153  1  0.91001000  0.61193000  0.19925000  1.0
  N  N154  1  0.09001000  0.78925000  0.20191000  1.0
  N  N155  1  0.91267000  0.71079000  0.30077000  1.0
  N  N156  1  0.08733000  0.19923000  0.78925000  1.0
  N  N157  1  0.91000000  0.29810000  0.71075000  1.0
  N  N158  1  0.09000000  0.30077000  0.88812000  1.0
  N  N159  1  0.91267000  0.20191000  0.61189000  1.0
  N  N160  1  0.92518000  0.58918000  0.69032000  1.0
  N  N161  1  0.07483000  0.80957000  0.91069000  1.0
  N  N162  1  0.90511000  0.69561000  0.59355000  1.0
  N  N163  1  0.09499000  0.90628000  0.80426000  1.0
  N  N164  1  0.07481000  0.26524000  0.16406000  1.0
  N  N165  1  0.92516000  0.33595000  0.23477000  1.0
  N  N166  1  0.09495000  0.18862000  0.29064000  1.0
  N  N167  1  0.90505000  0.20939000  0.31140000  1.0
  N  N168  1  0.39797000  0.59373000  0.18872000  1.0
  N  N169  1  0.39798000  0.80440000  0.20951000  1.0
  N  N170  1  0.60113000  0.69043000  0.26532000  1.0
  N  N171  1  0.60118000  0.91082000  0.33603000  1.0
  N  N172  1  0.60206000  0.31131000  0.90632000  1.0
  N  N173  1  0.60200000  0.29049000  0.69560000  1.0
  N  N174  1  0.39888000  0.23474000  0.80961000  1.0
  N  N175  1  0.39882000  0.16398000  0.58921000  1.0
  O  O176  1  0.00000000  0.00000000  0.50000000  1.0
  O  O177  1  0.84657000  0.87217000  0.41169000  1.0
  O  O178  1  0.95974000  0.11539000  0.57530000  1.0
  O  O179  1  0.04065000  0.97461000  0.62714000  1.0
  O  O180  1  0.84656000  0.97440000  0.43485000  1.0
  O  O181  1  0.95939000  0.87283000  0.52534000  1.0
  O  O182  1  0.04017000  0.11549000  0.65563000  1.0
  O  O183  1  0.15345000  0.08836000  0.62787000  1.0
  O  O184  1  0.04021000  0.92471000  0.38457000  1.0
  O  O185  1  0.15343000  0.06511000  0.52560000  1.0
  O  O186  1  0.95973000  0.84438000  0.38441000  1.0
  O  O187  1  0.95937000  0.08656000  0.43402000  1.0
  O  O188  1  0.04063000  0.06604000  0.41350000  1.0
  O  O189  1  1.00000000  0.50003000  0.00000000  1.0
  O  O190  1  0.03949000  0.62786000  0.97439000  1.0
  O  O191  1  0.95990000  0.38459000  0.84436000  1.0
  O  O192  1  0.15253000  0.52541000  0.06603000  1.0
  O  O193  1  0.96047000  0.52558000  0.87212000  1.0
  O  O194  1  0.15253000  0.62719000  0.08652000  1.0
  O  O195  1  0.04012000  0.38448000  0.92471000  1.0
  O  O196  1  0.03955000  0.41173000  0.06515000  1.0
  O  O197  1  0.95990000  0.57533000  0.11554000  1.0
  O  O198  1  0.96049000  0.43492000  0.08833000  1.0
  O  O199  1  0.04010000  0.65566000  0.11542000  1.0
  O  O200  1  0.84747000  0.41346000  0.87281000  1.0
  O  O201  1  0.84747000  0.43401000  0.97461000  1.0
