# generated using pymatgen
data_CdH26C34(NO)4
_symmetry_space_group_name_H-M   'P 1'
_cell_length_a   9.73296000
_cell_length_b   9.73296000
_cell_length_c   16.73300000
_cell_angle_alpha   89.21190000
_cell_angle_beta   89.21190000
_cell_angle_gamma   76.01130000
_symmetry_Int_Tables_number   1
_chemical_formula_structural   CdH26C34(NO)4
_chemical_formula_sum   'Cd2 H52 C68 N8 O8'
_cell_volume   1537.88186372
_cell_formula_units_Z   2
loop_
 _symmetry_equiv_pos_site_id
 _symmetry_equiv_pos_as_xyz
  1  'x, y, z'
loop_
 _atom_site_type_symbol
 _atom_site_label
 _atom_site_symmetry_multiplicity
 _atom_site_fract_x
 _atom_site_fract_y
 _atom_site_fract_z
 _atom_site_occupancy
  Cd  Cd0  1  0.50000000  0.50000000  0.50000000  1.0
  Cd  Cd1  1  0.50000000  0.50000000  0.00000000  1.0
  H  H2  1  0.17274000  0.68780000  0.79245000  1.0
  H  H3  1  0.31220000  0.82726000  0.70755000  1.0
  H  H4  1  0.82726000  0.31220000  0.20755000  1.0
  H  H5  1  0.68780000  0.17274000  0.29245000  1.0
  H  H6  1  0.01038000  0.69935000  0.84685000  1.0
  H  H7  1  0.30065000  0.98962000  0.65315000  1.0
  H  H8  1  0.98962000  0.30065000  0.15315000  1.0
  H  H9  1  0.69935000  0.01038000  0.34685000  1.0
  H  H10  1  0.09811000  0.83967000  0.85062000  1.0
  H  H11  1  0.16033000  0.90189000  0.64939000  1.0
  H  H12  1  0.90189000  0.16033000  0.14939000  1.0
  H  H13  1  0.83967000  0.09811000  0.35061000  1.0
  H  H14  1  0.01167000  0.68492000  0.98726000  1.0
  H  H15  1  0.31508000  0.98833000  0.51274000  1.0
  H  H16  1  0.98833000  0.31509000  0.01274000  1.0
  H  H17  1  0.68491000  0.01167000  0.48726000  1.0
  H  H18  1  0.25344000  0.50205000  0.21099000  1.0
  H  H19  1  0.49795000  0.74656000  0.28901000  1.0
  H  H20  1  0.74656000  0.49795000  0.78901000  1.0
  H  H21  1  0.50205000  0.25344000  0.71099000  1.0
  H  H22  1  0.84067000  0.57878000  0.32393000  1.0
  H  H23  1  0.42122000  0.15933000  0.17606000  1.0
  H  H24  1  0.15933000  0.42122000  0.67606000  1.0
  H  H25  1  0.57878000  0.84067000  0.82394000  1.0
  H  H26  1  0.73093000  0.65950000  0.19266000  1.0
  H  H27  1  0.34050000  0.26907000  0.30734000  1.0
  H  H28  1  0.26907000  0.34050000  0.80734000  1.0
  H  H29  1  0.65950000  0.73093000  0.69266000  1.0
  H  H30  1  0.87918000  0.66930000  0.07340000  1.0
  H  H31  1  0.33070000  0.12082000  0.42660000  1.0
  H  H32  1  0.12082000  0.33070000  0.92660000  1.0
  H  H33  1  0.66930000  0.87918000  0.57340000  1.0
  H  H34  1  0.28013000  0.29074000  0.57784000  1.0
  H  H35  1  0.70926000  0.71987000  0.92216000  1.0
  H  H36  1  0.71987000  0.70926000  0.42216000  1.0
  H  H37  1  0.29074000  0.28013000  0.07784000  1.0
  H  H38  1  0.08516000  0.16256000  0.59284000  1.0
  H  H39  1  0.83744000  0.91484000  0.90716000  1.0
  H  H40  1  0.91484000  0.83744000  0.40716000  1.0
  H  H41  1  0.16256000  0.08516000  0.09284000  1.0
  H  H42  1  0.90077000  0.18688000  0.49030000  1.0
  H  H43  1  0.81312000  0.09923000  0.00970000  1.0
  H  H44  1  0.09923000  0.81312000  0.50970000  1.0
  H  H45  1  0.18688000  0.90077000  0.99030000  1.0
  H  H46  1  0.89836000  0.34100000  0.37048000  1.0
  H  H47  1  0.65900000  0.10164000  0.12952000  1.0
  H  H48  1  0.10164000  0.65900000  0.62952000  1.0
  H  H49  1  0.34100000  0.89836000  0.87048000  1.0
  H  H50  1  0.28884000  0.60549000  0.34221000  1.0
  H  H51  1  0.39451000  0.71116000  0.15779000  1.0
  H  H52  1  0.71116000  0.39451000  0.65779000  1.0
  H  H53  1  0.60549000  0.28884000  0.84221000  1.0
  C  C54  1  0.11467000  0.72376000  0.84785000  1.0
  C  C55  1  0.27624000  0.88533000  0.65215000  1.0
  C  C56  1  0.88533000  0.27624000  0.15215000  1.0
  C  C57  1  0.72376000  0.11467000  0.34785000  1.0
  C  C58  1  0.20159000  0.65507000  0.91885000  1.0
  C  C59  1  0.34493000  0.79841000  0.58115000  1.0
  C  C60  1  0.79840000  0.34493000  0.08115000  1.0
  C  C61  1  0.65507000  0.20160000  0.41885000  1.0
  C  C62  1  0.12560000  0.64269000  0.99083000  1.0
  C  C63  1  0.35731000  0.87440000  0.50917000  1.0
  C  C64  1  0.87440000  0.35731000  0.00917000  1.0
  C  C65  1  0.64269000  0.12560000  0.49083000  1.0
  C  C66  1  0.17847000  0.58443000  0.06479000  1.0
  C  C67  1  0.41557000  0.82153000  0.43521000  1.0
  C  C68  1  0.82153000  0.41557000  0.93521000  1.0
  C  C69  1  0.58443000  0.17847000  0.56479000  1.0
  C  C70  1  0.07795000  0.58805000  0.13444000  1.0
  C  C71  1  0.41195000  0.92205000  0.36556000  1.0
  C  C72  1  0.92205000  0.41195000  0.86556000  1.0
  C  C73  1  0.58805000  0.07795000  0.63444000  1.0
  C  C74  1  0.13858000  0.53988000  0.20831000  1.0
  C  C75  1  0.46012000  0.86142000  0.29169000  1.0
  C  C76  1  0.86142000  0.46012000  0.79169000  1.0
  C  C77  1  0.53988000  0.13858000  0.70831000  1.0
  C  C78  1  0.05382000  0.53832000  0.27602000  1.0
  C  C79  1  0.46168000  0.94618000  0.22398000  1.0
  C  C80  1  0.94618000  0.46168000  0.72398000  1.0
  C  C81  1  0.53832000  0.05382000  0.77602000  1.0
  C  C82  1  0.90631000  0.58085000  0.27104000  1.0
  C  C83  1  0.41915000  0.09369000  0.22896000  1.0
  C  C84  1  0.09369000  0.41915000  0.72896000  1.0
  C  C85  1  0.58085000  0.90631000  0.77104000  1.0
  C  C86  1  0.84580000  0.62760000  0.19741000  1.0
  C  C87  1  0.37240000  0.15420000  0.30259000  1.0
  C  C88  1  0.15420000  0.37240000  0.80259000  1.0
  C  C89  1  0.62760000  0.84579000  0.69741000  1.0
  C  C90  1  0.93001000  0.63261000  0.12982000  1.0
  C  C91  1  0.36739000  0.06999000  0.37018000  1.0
  C  C92  1  0.06999000  0.36739000  0.87018000  1.0
  C  C93  1  0.63261000  0.93001000  0.62982000  1.0
  C  C94  1  0.08829000  0.40302000  0.40827000  1.0
  C  C95  1  0.59698000  0.91171000  0.09173000  1.0
  C  C96  1  0.91171000  0.59698000  0.59173000  1.0
  C  C97  1  0.40302000  0.08829000  0.90827000  1.0
  C  C98  1  0.19495000  0.38959000  0.46684000  1.0
  C  C99  1  0.61041000  0.80505000  0.03316000  1.0
  C  C100  1  0.80505000  0.61041000  0.53316000  1.0
  C  C101  1  0.38959000  0.19495000  0.96684000  1.0
  C  C102  1  0.19621000  0.30197000  0.53397000  1.0
  C  C103  1  0.69803000  0.80379000  0.96603000  1.0
  C  C104  1  0.80379000  0.69803000  0.46603000  1.0
  C  C105  1  0.30197000  0.19621000  0.03397000  1.0
  C  C106  1  0.08871000  0.23045000  0.54085000  1.0
  C  C107  1  0.76955000  0.91129000  0.95915000  1.0
  C  C108  1  0.91129000  0.76955000  0.45915000  1.0
  C  C109  1  0.23045000  0.08871000  0.04085000  1.0
  C  C110  1  0.98363000  0.24392000  0.48215000  1.0
  C  C111  1  0.75608000  0.01637000  0.01785000  1.0
  C  C112  1  0.01637000  0.75608000  0.51785000  1.0
  C  C113  1  0.24392000  0.98363000  0.98215000  1.0
  C  C114  1  0.98145000  0.33003000  0.41468000  1.0
  C  C115  1  0.66997000  0.01855000  0.08532000  1.0
  C  C116  1  0.01855000  0.66997000  0.58532000  1.0
  C  C117  1  0.33003000  0.98145000  0.91468000  1.0
  C  C118  1  0.24091000  0.53218000  0.37545000  1.0
  C  C119  1  0.46782000  0.75909000  0.12455000  1.0
  C  C120  1  0.75909000  0.46782000  0.62455000  1.0
  C  C121  1  0.53218000  0.24091000  0.87545000  1.0
  N  N122  1  0.28742000  0.47198000  0.44425000  1.0
  N  N123  1  0.52802000  0.71258000  0.05575000  1.0
  N  N124  1  0.71258000  0.52802000  0.55575000  1.0
  N  N125  1  0.47198000  0.28742000  0.94425000  1.0
  N  N126  1  0.12141000  0.49467000  0.35016000  1.0
  N  N127  1  0.50533000  0.87859000  0.14984000  1.0
  N  N128  1  0.87859000  0.50533000  0.64984000  1.0
  N  N129  1  0.49467000  0.12141000  0.85016000  1.0
  O  O130  1  0.33487000  0.61860000  0.90801000  1.0
  O  O131  1  0.38140000  0.66513000  0.59199000  1.0
  O  O132  1  0.66513000  0.38140000  0.09199000  1.0
  O  O133  1  0.61860000  0.33487000  0.40801000  1.0
  O  O134  1  0.30806000  0.52545000  0.08106000  1.0
  O  O135  1  0.47455000  0.69194000  0.41894000  1.0
  O  O136  1  0.69194000  0.47455000  0.91894000  1.0
  O  O137  1  0.52545000  0.30806000  0.58106000  1.0
