# generated using pymatgen
data_Cu2H14C17(N5O2)2
_symmetry_space_group_name_H-M   'P 1'
_cell_length_a   9.25827000
_cell_length_b   9.32120000
_cell_length_c   13.90244269
_cell_angle_alpha   109.58456155
_cell_angle_beta   101.97760456
_cell_angle_gamma   90.00220000
_symmetry_Int_Tables_number   1
_chemical_formula_structural   Cu2H14C17(N5O2)2
_chemical_formula_sum   'Cu4 H28 C34 N20 O8'
_cell_volume   1102.58042489
_cell_formula_units_Z   2
loop_
 _symmetry_equiv_pos_site_id
 _symmetry_equiv_pos_as_xyz
  1  'x, y, z'
loop_
 _atom_site_type_symbol
 _atom_site_label
 _atom_site_symmetry_multiplicity
 _atom_site_fract_x
 _atom_site_fract_y
 _atom_site_fract_z
 _atom_site_occupancy
  Cu  Cu0  1  0.93578000  0.63281000  0.62689000  1.0
  Cu  Cu1  1  0.56396000  0.00581000  0.37308000  1.0
  Cu  Cu2  1  0.06391000  0.36705000  0.37318000  1.0
  Cu  Cu3  1  0.43593000  0.99415000  0.62682000  1.0
  H  H4  1  0.19900000  0.73683000  0.79746000  1.0
  H  H5  1  0.30033000  0.93925000  0.20245000  1.0
  H  H6  1  0.80015000  0.26312000  0.20234000  1.0
  H  H7  1  0.69934000  0.06080000  0.79755000  1.0
  H  H8  1  0.36039000  0.63284000  0.92128000  1.0
  H  H9  1  0.13899000  0.71157000  0.07870000  1.0
  H  H10  1  0.63897000  0.36751000  0.07869000  1.0
  H  H11  1  0.86066000  0.28841000  0.92142000  1.0
  H  H12  1  0.07521000  0.21590000  0.78200000  1.0
  H  H13  1  0.42495000  0.43372000  0.21732000  1.0
  H  H14  1  0.92520000  0.78371000  0.21770000  1.0
  H  H15  1  0.57543000  0.56639000  0.78247000  1.0
  H  H16  1  0.92641000  0.33588000  0.66286000  1.0
  H  H17  1  0.57396000  0.67277000  0.33625000  1.0
  H  H18  1  0.07402000  0.66324000  0.33649000  1.0
  H  H19  1  0.42662000  0.32735000  0.66321000  1.0
  H  H20  1  0.42100000  0.42790000  0.98280000  1.0
  H  H21  1  0.07861000  0.44474000  0.01701000  1.0
  H  H22  1  0.57884000  0.57258000  0.01712000  1.0
  H  H23  1  0.92126000  0.55507000  0.98313000  1.0
  H  H24  1  0.37917000  0.24631000  0.88232000  1.0
  H  H25  1  0.12085000  0.36384000  0.11759000  1.0
  H  H26  1  0.62105000  0.75410000  0.11764000  1.0
  H  H27  1  0.87961000  0.63598000  0.88253000  1.0
  H  H28  1  0.16924000  0.19020000  0.94941000  1.0
  H  H29  1  0.33047000  0.24051000  0.05020000  1.0
  H  H30  1  0.83093000  0.80987000  0.05043000  1.0
  H  H31  1  0.66978000  0.75953000  0.94959000  1.0
  C  C32  1  0.18559000  0.94856000  0.70454000  1.0
  C  C33  1  0.31482000  0.24418000  0.29596000  1.0
  C  C34  1  0.81494000  0.05162000  0.29591000  1.0
  C  C35  1  0.68568000  0.75664000  0.70484000  1.0
  C  C36  1  0.19493000  0.80723000  0.61564000  1.0
  C  C37  1  0.30501000  0.19153000  0.38466000  1.0
  C  C38  1  0.80506000  0.19289000  0.38466000  1.0
  C  C39  1  0.69487000  0.80853000  0.61570000  1.0
  C  C40  1  0.17740000  0.62089000  0.79542000  1.0
  C  C41  1  0.32227000  0.82533000  0.20433000  1.0
  C  C42  1  0.82214000  0.37896000  0.20433000  1.0
  C  C43  1  0.67763000  0.17471000  0.79556000  1.0
  C  C44  1  0.26562000  0.56198000  0.86486000  1.0
  C  C45  1  0.23400000  0.69698000  0.13491000  1.0
  C  C46  1  0.73398000  0.43811000  0.13500000  1.0
  C  C47  1  0.76588000  0.30300000  0.86505000  1.0
  C  C48  1  0.23324000  0.41327000  0.86152000  1.0
  C  C49  1  0.26654000  0.55160000  0.13810000  1.0
  C  C50  1  0.76666000  0.58676000  0.13831000  1.0
  C  C51  1  0.73354000  0.44843000  0.86183000  1.0
  C  C52  1  0.10723000  0.33169000  0.78815000  1.0
  C  C53  1  0.39283000  0.54337000  0.21125000  1.0
  C  C54  1  0.89294000  0.66798000  0.21154000  1.0
  C  C55  1  0.60748000  0.45670000  0.78850000  1.0
  C  C56  1  0.02429000  0.39723000  0.72079000  1.0
  C  C57  1  0.47587000  0.67625000  0.27852000  1.0
  C  C58  1  0.97588000  0.60215000  0.27873000  1.0
  C  C59  1  0.52453000  0.32385000  0.72110000  1.0
  C  C60  1  0.33036000  0.34334000  0.93208000  1.0
  C  C61  1  0.16940000  0.41104000  0.06769000  1.0
  C  C62  1  0.66966000  0.65693000  0.06784000  1.0
  C  C63  1  0.83072000  0.58887000  0.93233000  1.0
  C  C64  1  0.24986000  0.28614000  0.99985000  1.0
  C  C65  1  0.75028000  0.71394000  0.00004000  1.0
  N  N66  1  0.30484000  0.79971000  0.56542000  1.0
  N  N67  1  0.19505000  0.23427000  0.43481000  1.0
  N  N68  1  0.69505000  0.20015000  0.43478000  1.0
  N  N69  1  0.80449000  0.76525000  0.56527000  1.0
  N  N70  1  0.28936000  0.66245000  0.49050000  1.0
  N  N71  1  0.21026000  0.17170000  0.50960000  1.0
  N  N72  1  0.71013000  0.33747000  0.50958000  1.0
  N  N73  1  0.78894000  0.82719000  0.49015000  1.0
  N  N74  1  0.17119000  0.58768000  0.49569000  1.0
  N  N75  1  0.32829000  0.09156000  0.50437000  1.0
  N  N76  1  0.82812000  0.41252000  0.50442000  1.0
  N  N77  1  0.67099000  0.90747000  0.49541000  1.0
  N  N78  1  0.11029000  0.67609000  0.57334000  1.0
  N  N79  1  0.38940000  0.10242000  0.42682000  1.0
  N  N80  1  0.88935000  0.32421000  0.42690000  1.0
  N  N81  1  0.61033000  0.89730000  0.57330000  1.0
  N  N82  1  0.05937000  0.53889000  0.72336000  1.0
  N  N83  1  0.44055000  0.81540000  0.27618000  1.0
  N  N84  1  0.94046000  0.46061000  0.27625000  1.0
  N  N85  1  0.55959000  0.18469000  0.72354000  1.0
  O  O86  1  0.08801000  0.95769000  0.75553000  1.0
  O  O87  1  0.41278000  0.20258000  0.24529000  1.0
  O  O88  1  0.91306000  0.04255000  0.24537000  1.0
  O  O89  1  0.58807000  0.79867000  0.75578000  1.0
  O  O90  1  0.28851000  0.05292000  0.72010000  1.0
  O  O91  1  0.21186000  0.33283000  0.28016000  1.0
  O  O92  1  0.71183000  0.94724000  0.27995000  1.0
  O  O93  1  0.78874000  0.66810000  0.72066000  1.0
