# generated using pymatgen
data_Zn4H8C40N4Cl16O13
_symmetry_space_group_name_H-M   'P 1'
_cell_length_a   23.72408347
_cell_length_b   23.72410000
_cell_length_c   23.72240000
_cell_angle_alpha   67.15520000
_cell_angle_beta   72.18520516
_cell_angle_gamma   107.81038197
_symmetry_Int_Tables_number   1
_chemical_formula_structural   Zn4H8C40N4Cl16O13
_chemical_formula_sum   'Zn8 H16 C80 N8 Cl32 O26'
_cell_volume   10250.94504560
_cell_formula_units_Z   2
loop_
 _symmetry_equiv_pos_site_id
 _symmetry_equiv_pos_as_xyz
  1  'x, y, z'
loop_
 _atom_site_type_symbol
 _atom_site_label
 _atom_site_symmetry_multiplicity
 _atom_site_fract_x
 _atom_site_fract_y
 _atom_site_fract_z
 _atom_site_occupancy
  Zn  Zn0  1  0.05377000  0.10020000  0.45841000  1.0
  Zn  Zn1  1  0.05377000  0.95360000  0.48781000  1.0
  Zn  Zn2  1  0.94624000  0.95843000  0.60019000  1.0
  Zn  Zn3  1  0.94622000  0.98779000  0.45360000  1.0
  Zn  Zn4  1  0.94139000  0.39983000  0.04640000  1.0
  Zn  Zn5  1  0.05862000  0.54644000  0.89979000  1.0
  Zn  Zn6  1  0.94139000  0.54157000  0.01220000  1.0
  Zn  Zn7  1  0.05861000  0.51219000  0.04157000  1.0
  H  H8  1  0.91515000  0.07363000  0.33472000  1.0
  H  H9  1  0.90860000  0.10544000  0.25983000  1.0
  H  H10  1  0.09159000  0.42633000  0.15851000  1.0
  H  H11  1  0.13469000  0.39453000  0.19684000  1.0
  H  H12  1  0.90834000  0.24987000  0.16529000  1.0
  H  H13  1  0.86526000  0.16843000  0.24018000  1.0
  H  H14  1  0.08484000  0.25009000  0.34150000  1.0
  H  H15  1  0.09137000  0.33152000  0.30317000  1.0
  H  H16  1  0.91514000  0.84148000  0.75014000  1.0
  H  H17  1  0.90861000  0.80313000  0.83158000  1.0
  H  H18  1  0.09161000  0.66525000  0.74987000  1.0
  H  H19  1  0.13471000  0.74016000  0.66843000  1.0
  H  H20  1  0.90838000  0.65847000  0.92637000  1.0
  H  H21  1  0.86528000  0.69681000  0.89458000  1.0
  H  H22  1  0.08485000  0.83474000  0.57362000  1.0
  H  H23  1  0.09139000  0.75984000  0.60542000  1.0
  C  C24  1  0.17534000  0.08769000  0.41234000  1.0
  C  C25  1  1.00000000  0.86070000  0.63931000  1.0
  C  C26  1  0.00000000  0.09092000  0.59087000  1.0
  C  C27  1  0.82466000  0.91234000  0.58771000  1.0
  C  C28  1  0.00001000  0.13929000  0.36067000  1.0
  C  C29  1  0.00000000  0.90909000  0.40912000  1.0
  C  C30  1  0.00003000  0.41237000  0.91228000  1.0
  C  C31  1  0.00000000  0.63929000  0.86069000  1.0
  C  C32  1  0.81821000  0.40912000  0.09088000  1.0
  C  C33  1  0.00002000  0.58768000  0.08766000  1.0
  C  C34  1  0.99998000  0.36069000  0.13931000  1.0
  C  C35  1  0.18179000  0.59093000  0.90906000  1.0
  C  C36  1  0.99998000  0.19533000  0.30465000  1.0
  C  C37  1  0.99998000  0.30464000  0.19536000  1.0
  C  C38  1  0.95635000  0.17906000  0.27661000  1.0
  C  C39  1  0.04429000  0.32091000  0.22271000  1.0
  C  C40  1  0.95566000  0.23296000  0.22340000  1.0
  C  C41  1  0.04362000  0.26700000  0.27729000  1.0
  C  C42  1  0.00000000  0.80465000  0.69535000  1.0
  C  C43  1  0.99999000  0.69533000  0.80465000  1.0
  C  C44  1  0.95636000  0.77728000  0.76703000  1.0
  C  C45  1  0.04430000  0.72337000  0.73297000  1.0
  C  C46  1  0.95568000  0.72268000  0.82094000  1.0
  C  C47  1  0.04363000  0.77661000  0.67906000  1.0
  C  C48  1  0.00003000  0.37430000  0.87422000  1.0
  C  C49  1  0.98672000  0.30447000  0.90830000  1.0
  C  C50  1  0.98616000  0.26871000  0.87309000  1.0
  C  C51  1  0.00000000  0.30275000  0.80271000  1.0
  C  C52  1  0.01385000  0.37312000  0.76866000  1.0
  C  C53  1  0.01333000  0.40835000  0.80440000  1.0
  C  C54  1  0.99998000  0.26705000  0.76705000  1.0
  C  C55  1  0.99999000  0.23622000  0.73623000  1.0
  C  C56  1  0.99999000  0.20054000  0.70055000  1.0
  C  C57  1  0.94044000  0.14044000  0.72434000  1.0
  C  C58  1  0.94044000  0.10536000  0.68843000  1.0
  C  C59  1  0.99999000  0.12899000  0.62897000  1.0
  C  C60  1  0.05955000  0.18846000  0.60533000  1.0
  C  C61  1  0.05954000  0.22433000  0.64043000  1.0
  C  C62  1  0.00002000  0.62576000  0.12572000  1.0
  C  C63  1  0.01332000  0.60500000  0.18225000  1.0
  C  C64  1  0.01386000  0.64077000  0.21746000  1.0
  C  C65  1  1.00000000  0.69728000  0.19726000  1.0
  C  C66  1  0.98616000  0.71748000  0.14072000  1.0
  C  C67  1  0.98670000  0.68226000  0.10497000  1.0
  C  C68  1  0.00000000  0.73296000  0.23294000  1.0
  C  C69  1  0.99999000  0.76377000  0.26378000  1.0
  C  C70  1  1.00000000  0.79946000  0.29946000  1.0
  C  C71  1  0.05955000  0.83523000  0.30000000  1.0
  C  C72  1  0.05955000  0.87111000  0.33510000  1.0
  C  C73  1  1.00000000  0.87101000  0.37104000  1.0
  C  C74  1  0.94044000  0.83508000  0.37115000  1.0
  C  C75  1  0.94045000  0.80000000  0.33524000  1.0
  C  C76  1  0.74204000  0.37103000  0.12897000  1.0
  C  C77  1  0.70621000  0.31157000  0.12888000  1.0
  C  C78  1  0.63523000  0.27568000  0.16478000  1.0
  C  C79  1  0.59891000  0.29946000  0.20055000  1.0
  C  C80  1  0.63523000  0.35955000  0.20001000  1.0
  C  C81  1  0.70621000  0.39464000  0.16492000  1.0
  C  C82  1  0.52755000  0.26378000  0.23624000  1.0
  C  C83  1  0.46589000  0.23293000  0.26710000  1.0
  C  C84  1  0.39453000  0.19725000  0.30278000  1.0
  C  C85  1  0.35819000  0.12688000  0.35931000  1.0
  C  C86  1  0.28722000  0.09167000  0.39506000  1.0
  C  C87  1  0.25147000  0.12574000  0.37430000  1.0
  C  C88  1  0.28725000  0.19556000  0.31778000  1.0
  C  C89  1  0.35823000  0.23131000  0.28257000  1.0
  C  C90  1  0.25796000  0.62902000  0.87099000  1.0
  C  C91  1  0.29380000  0.62893000  0.81153000  1.0
  C  C92  1  0.36478000  0.66481000  0.77565000  1.0
  C  C93  1  0.40109000  0.70056000  0.79945000  1.0
  C  C94  1  0.36476000  0.70001000  0.85955000  1.0
  C  C95  1  0.29377000  0.66493000  0.89464000  1.0
  C  C96  1  0.47246000  0.73624000  0.76377000  1.0
  C  C97  1  0.53410000  0.76708000  0.73296000  1.0
  C  C98  1  0.60547000  0.80277000  0.69726000  1.0
  C  C99  1  0.64181000  0.85930000  0.62689000  1.0
  C  C100  1  0.71278000  0.89505000  0.59169000  1.0
  C  C101  1  0.74852000  0.87428000  0.62577000  1.0
  C  C102  1  0.71274000  0.81775000  0.69560000  1.0
  C  C103  1  0.64177000  0.78255000  0.73133000  1.0
  N  N104  1  0.91122000  0.11143000  0.29935000  1.0
  N  N105  1  0.08917000  0.38853000  0.20023000  1.0
  N  N106  1  0.91077000  0.21058000  0.20066000  1.0
  N  N107  1  0.08875000  0.28938000  0.29978000  1.0
  N  N108  1  0.91122000  0.79976000  0.78944000  1.0
  N  N109  1  0.08919000  0.70063000  0.71057000  1.0
  N  N110  1  0.91080000  0.70019000  0.88857000  1.0
  N  N111  1  0.08876000  0.79935000  0.61143000  1.0
  Cl  Cl112  1  0.97366000  0.26290000  0.99237000  1.0
  Cl  Cl113  1  0.02641000  0.49243000  0.76280000  1.0
  Cl  Cl114  1  0.03063000  0.41407000  0.68349000  1.0
  Cl  Cl115  1  0.96931000  0.18353000  0.91407000  1.0
  Cl  Cl116  1  0.86860000  0.11178000  0.79722000  1.0
  Cl  Cl117  1  0.13134000  0.29722000  0.61178000  1.0
  Cl  Cl118  1  0.13369000  0.21639000  0.53496000  1.0
  Cl  Cl119  1  0.86629000  0.03499000  0.71636000  1.0
  Cl  Cl120  1  0.02640000  0.53401000  0.21076000  1.0
  Cl  Cl121  1  0.97363000  0.71076000  0.03397000  1.0
  Cl  Cl122  1  0.96933000  0.78582000  0.11657000  1.0
  Cl  Cl123  1  0.03068000  0.61663000  0.28582000  1.0
  Cl  Cl124  1  0.13137000  0.83418000  0.25680000  1.0
  Cl  Cl125  1  0.86860000  0.75678000  0.33424000  1.0
  Cl  Cl126  1  0.86628000  0.83127000  0.41741000  1.0
  Cl  Cl127  1  0.13371000  0.91735000  0.33128000  1.0
  Cl  Cl128  1  0.74864000  0.28366000  0.08263000  1.0
  Cl  Cl129  1  0.74865000  0.46500000  0.16872000  1.0
  Cl  Cl130  1  0.59100000  0.38817000  0.24325000  1.0
  Cl  Cl131  1  0.59099000  0.20280000  0.16585000  1.0
  Cl  Cl132  1  0.40238000  0.08589000  0.38348000  1.0
  Cl  Cl133  1  0.40245000  0.31649000  0.21421000  1.0
  Cl  Cl134  1  0.24478000  0.23718000  0.28925000  1.0
  Cl  Cl135  1  0.24471000  0.00761000  0.46607000  1.0
  Cl  Cl136  1  0.25138000  0.58271000  0.78359000  1.0
  Cl  Cl137  1  0.25132000  0.66872000  0.96500000  1.0
  Cl  Cl138  1  0.40897000  0.74319000  0.88820000  1.0
  Cl  Cl139  1  0.40904000  0.66589000  0.70276000  1.0
  Cl  Cl140  1  0.59762000  0.88347000  0.58591000  1.0
  Cl  Cl141  1  0.59755000  0.71419000  0.81651000  1.0
  Cl  Cl142  1  0.75522000  0.78923000  0.73719000  1.0
  Cl  Cl143  1  0.75530000  0.96606000  0.50760000  1.0
  O  O144  1  1.00000000  0.00001000  0.50000000  1.0
  O  O145  1  0.14683000  0.11655000  0.43689000  1.0
  O  O146  1  0.04734000  0.89221000  0.57574000  1.0
  O  O147  1  0.97999000  0.02587000  0.62706000  1.0
  O  O148  1  0.14684000  0.03032000  0.41627000  1.0
  O  O149  1  0.02000000  0.12707000  0.52585000  1.0
  O  O150  1  0.95267000  0.87693000  0.65516000  1.0
  O  O151  1  0.85316000  0.93688000  0.61659000  1.0
  O  O152  1  0.95267000  0.07572000  0.39218000  1.0
  O  O153  1  0.85316000  0.91627000  0.53035000  1.0
  O  O154  1  0.04735000  0.15512000  0.37688000  1.0
  O  O155  1  0.02003000  0.89296000  0.45413000  1.0
  O  O156  1  0.97996000  0.95410000  0.39298000  1.0
  O  O157  1  1.00000000  0.50000000  0.00000000  1.0
  O  O158  1  0.94660000  0.38351000  0.96966000  1.0
  O  O159  1  0.03204000  0.60778000  0.84485000  1.0
  O  O160  1  0.84708000  0.47416000  0.04588000  1.0
  O  O161  1  0.05344000  0.46973000  0.88342000  1.0
  O  O162  1  0.84707000  0.37294000  0.10703000  1.0
  O  O163  1  0.96795000  0.62307000  0.92426000  1.0
  O  O164  1  0.94658000  0.56312000  0.08373000  1.0
  O  O165  1  0.03205000  0.42425000  0.12308000  1.0
  O  O166  1  0.05343000  0.58372000  0.06310000  1.0
  O  O167  1  0.96790000  0.34486000  0.10782000  1.0
  O  O168  1  0.15292000  0.60708000  0.87291000  1.0
  O  O169  1  0.15292000  0.54589000  0.97412000  1.0
