# generated using pymatgen
data_ZnH16C10N2(ClO2)2
_symmetry_space_group_name_H-M   'P 1'
_cell_length_a   7.06307000
_cell_length_b   10.11600000
_cell_length_c   18.14500000
_cell_angle_alpha   90.00000000
_cell_angle_beta   90.00000000
_cell_angle_gamma   90.00000000
_symmetry_Int_Tables_number   1
_chemical_formula_structural   ZnH16C10N2(ClO2)2
_chemical_formula_sum   'Zn4 H64 C40 N8 Cl8 O16'
_cell_volume   1296.46054250
_cell_formula_units_Z   4
loop_
 _symmetry_equiv_pos_site_id
 _symmetry_equiv_pos_as_xyz
  1  'x, y, z'
loop_
 _atom_site_type_symbol
 _atom_site_label
 _atom_site_symmetry_multiplicity
 _atom_site_fract_x
 _atom_site_fract_y
 _atom_site_fract_z
 _atom_site_occupancy
  Zn  Zn0  1  0.43747000  0.44843000  0.13113000  1.0
  Zn  Zn1  1  0.06253000  0.55157000  0.63113000  1.0
  Zn  Zn2  1  0.56253000  0.94843000  0.36887000  1.0
  Zn  Zn3  1  0.93747000  0.05158000  0.86887000  1.0
  H  H4  1  0.94562000  0.39207000  0.83792000  1.0
  H  H5  1  0.55438000  0.60793000  0.33792000  1.0
  H  H6  1  0.05438000  0.89207000  0.66208000  1.0
  H  H7  1  0.44562000  0.10793000  0.16208000  1.0
  H  H8  1  0.05707000  0.54610000  0.86040000  1.0
  H  H9  1  0.44293000  0.45390000  0.36040000  1.0
  H  H10  1  0.94293000  0.04610000  0.63960000  1.0
  H  H11  1  0.55707000  0.95390000  0.13960000  1.0
  H  H12  1  0.83279000  0.67085000  0.79704000  1.0
  H  H13  1  0.66721000  0.32914000  0.29704000  1.0
  H  H14  1  0.16721000  0.17086000  0.70296000  1.0
  H  H15  1  0.33279000  0.82914000  0.20296000  1.0
  H  H16  1  0.75724000  0.51810000  0.75607000  1.0
  H  H17  1  0.74276000  0.48190000  0.25607000  1.0
  H  H18  1  0.24276000  0.01810000  0.74393000  1.0
  H  H19  1  0.25725000  0.98190000  0.24393000  1.0
  H  H20  1  0.71210000  0.29728000  0.92531000  1.0
  H  H21  1  0.78790000  0.70272000  0.42531000  1.0
  H  H22  1  0.28790000  0.79728000  0.57469000  1.0
  H  H23  1  0.21210000  0.20272000  0.07469000  1.0
  H  H24  1  0.60350000  0.40946000  0.98777000  1.0
  H  H25  1  0.89650000  0.59054000  0.48777000  1.0
  H  H26  1  0.39650000  0.90946000  0.51223000  1.0
  H  H27  1  0.10350000  0.09054000  0.01223000  1.0
  H  H28  1  0.01265000  0.32151000  0.96360000  1.0
  H  H29  1  0.48734000  0.67848000  0.46360000  1.0
  H  H30  1  0.98735000  0.82151000  0.53640000  1.0
  H  H31  1  0.51266000  0.17849000  0.03640000  1.0
  H  H32  1  0.90516000  0.40528000  0.03945000  1.0
  H  H33  1  0.59484000  0.59472000  0.53945000  1.0
  H  H34  1  0.09484000  0.90528000  0.46055000  1.0
  H  H35  1  0.40516000  0.09472000  0.96055000  1.0
  H  H36  1  0.39107000  0.45105000  0.89109000  1.0
  H  H37  1  0.10893000  0.54894000  0.39109000  1.0
  H  H38  1  0.60893000  0.95106000  0.60891000  1.0
  H  H39  1  0.89107000  0.04894000  0.10891000  1.0
  H  H40  1  0.54377000  0.38289000  0.82302000  1.0
  H  H41  1  0.95623000  0.61711000  0.32302000  1.0
  H  H42  1  0.45623000  0.88289000  0.67698000  1.0
  H  H43  1  0.04377000  0.11711000  0.17698000  1.0
  H  H44  1  0.48756000  0.66367000  0.94509000  1.0
  H  H45  1  0.01244000  0.33633000  0.44509000  1.0
  H  H46  1  0.51244000  0.16367000  0.55491000  1.0
  H  H47  1  0.98756000  0.83633000  0.05491000  1.0
  H  H48  1  0.64523000  0.76998000  0.89432000  1.0
  H  H49  1  0.85477000  0.23002000  0.39432000  1.0
  H  H50  1  0.35477000  0.26998000  0.60568000  1.0
  H  H51  1  0.14523000  0.73002000  0.10568000  1.0
  H  H52  1  0.51001000  0.74154000  0.78046000  1.0
  H  H53  1  0.98999000  0.25846000  0.28046000  1.0
  H  H54  1  0.48999000  0.24155000  0.71954000  1.0
  H  H55  1  0.01002000  0.75845000  0.21954000  1.0
  H  H56  1  0.33062000  0.67448000  0.83643000  1.0
  H  H57  1  0.16939000  0.32552000  0.33643000  1.0
  H  H58  1  0.66938000  0.17448000  0.66357000  1.0
  H  H59  1  0.83062000  0.82552000  0.16357000  1.0
  H  H60  1  0.91397000  0.68471000  0.95238000  1.0
  H  H61  1  0.58603000  0.31529000  0.45238000  1.0
  H  H62  1  0.08603000  0.18471000  0.54762000  1.0
  H  H63  1  0.41397000  0.81529000  0.04762000  1.0
  H  H64  1  0.75233000  0.61581000  0.01861000  1.0
  H  H65  1  0.74767000  0.38419000  0.51861000  1.0
  H  H66  1  0.24767000  0.11581000  0.48139000  1.0
  H  H67  1  0.25233000  0.88419000  0.98139000  1.0
  C  C68  1  0.92206000  0.49357000  0.85705000  1.0
  C  C69  1  0.57795000  0.50643000  0.35705000  1.0
  C  C70  1  0.07795000  0.99357000  0.64295000  1.0
  C  C71  1  0.42205000  0.00643000  0.14295000  1.0
  C  C72  1  0.78298000  0.57015000  0.80802000  1.0
  C  C73  1  0.71702000  0.42985000  0.30802000  1.0
  C  C74  1  0.21702000  0.07015000  0.69198000  1.0
  C  C75  1  0.28299000  0.92985000  0.19198000  1.0
  C  C76  1  0.66895000  0.40038000  0.93331000  1.0
  C  C77  1  0.83105000  0.59962000  0.43331000  1.0
  C  C78  1  0.33105000  0.90038000  0.56669000  1.0
  C  C79  1  0.16895000  0.09962000  0.06669000  1.0
  C  C80  1  0.98183000  0.41911000  0.98714000  1.0
  C  C81  1  0.51817000  0.58089000  0.48714000  1.0
  C  C82  1  0.01817000  0.91911000  0.51286000  1.0
  C  C83  1  0.48183000  0.08089000  0.01286000  1.0
  C  C84  1  0.53729000  0.44617000  0.87169000  1.0
  C  C85  1  0.96271000  0.55383000  0.37169000  1.0
  C  C86  1  0.46272000  0.94617000  0.62831000  1.0
  C  C87  1  0.03728000  0.05383000  0.12831000  1.0
  C  C88  1  0.62112000  0.66924000  0.91434000  1.0
  C  C89  1  0.87888000  0.33076000  0.41434000  1.0
  C  C90  1  0.37888000  0.16924000  0.58566000  1.0
  C  C91  1  0.12112000  0.83076000  0.08566000  1.0
  C  C92  1  0.44822000  0.64804000  0.79969000  1.0
  C  C93  1  0.05178000  0.35196000  0.29969000  1.0
  C  C94  1  0.55178000  0.14805000  0.70031000  1.0
  C  C95  1  0.94822000  0.85196000  0.20031000  1.0
  C  C96  1  0.36980000  0.56923000  0.73436000  1.0
  C  C97  1  0.13021000  0.43077000  0.23436000  1.0
  C  C98  1  0.63020000  0.06924000  0.76564000  1.0
  C  C99  1  0.86980000  0.93076000  0.26564000  1.0
  C  C100  1  0.17013000  0.48747000  0.00275000  1.0
  C  C101  1  0.32988000  0.51253000  0.50275000  1.0
  C  C102  1  0.82987000  0.98747000  0.49725000  1.0
  C  C103  1  0.67013000  0.01253000  0.99725000  1.0
  C  C104  1  0.78992000  0.62164000  0.95998000  1.0
  C  C105  1  0.71008000  0.37836000  0.45998000  1.0
  C  C106  1  0.21008000  0.12164000  0.54002000  1.0
  C  C107  1  0.28992000  0.87836000  0.04002000  1.0
  N  N108  1  0.84524000  0.48487000  0.93470000  1.0
  N  N109  1  0.65476000  0.51513000  0.43470000  1.0
  N  N110  1  0.15476000  0.98487000  0.56530000  1.0
  N  N111  1  0.34524000  0.01513000  0.06530000  1.0
  N  N112  1  0.59584000  0.58235000  0.84709000  1.0
  N  N113  1  0.90415000  0.41765000  0.34709000  1.0
  N  N114  1  0.40415000  0.08235000  0.65291000  1.0
  N  N115  1  0.09585000  0.91765000  0.15291000  1.0
  Cl  Cl116  1  0.68803000  0.30522000  0.12917000  1.0
  Cl  Cl117  1  0.81197000  0.69477000  0.62917000  1.0
  Cl  Cl118  1  0.31197000  0.80523000  0.37083000  1.0
  Cl  Cl119  1  0.18803000  0.19478000  0.87083000  1.0
  Cl  Cl120  1  0.55142000  0.65097000  0.14683000  1.0
  Cl  Cl121  1  0.94858000  0.34903000  0.64683000  1.0
  Cl  Cl122  1  0.44859000  0.15096000  0.35317000  1.0
  Cl  Cl123  1  0.05141000  0.84903000  0.85317000  1.0
  O  O124  1  0.22799000  0.63270000  0.70646000  1.0
  O  O125  1  0.27201000  0.36730000  0.20646000  1.0
  O  O126  1  0.77200000  0.13271000  0.79354000  1.0
  O  O127  1  0.72800000  0.86730000  0.29354000  1.0
  O  O128  1  0.43600000  0.46147000  0.71395000  1.0
  O  O129  1  0.06399000  0.53853000  0.21395000  1.0
  O  O130  1  0.56399000  0.96147000  0.78605000  1.0
  O  O131  1  0.93601000  0.03853000  0.28605000  1.0
  O  O132  1  0.27681000  0.41160000  0.04208000  1.0
  O  O133  1  0.22320000  0.58840000  0.54208000  1.0
  O  O134  1  0.72319000  0.91160000  0.45792000  1.0
  O  O135  1  0.77681000  0.08840000  0.95792000  1.0
  O  O136  1  0.20908000  0.59966000  0.97871000  1.0
  O  O137  1  0.29092000  0.40034000  0.47871000  1.0
  O  O138  1  0.79093000  0.09965000  0.52129000  1.0
  O  O139  1  0.70908000  0.90034000  0.02129000  1.0
