# generated using pymatgen
data_ZnH7C15(NO2)2
_symmetry_space_group_name_H-M   'P 1'
_cell_length_a   9.78732000
_cell_length_b   11.02360000
_cell_length_c   16.10460000
_cell_angle_alpha   92.45000000
_cell_angle_beta   90.08200000
_cell_angle_gamma   91.08650000
_symmetry_Int_Tables_number   1
_chemical_formula_structural   ZnH7C15(NO2)2
_chemical_formula_sum   'Zn2 H14 C30 N4 O8'
_cell_volume   1735.64469667
_cell_formula_units_Z   2
loop_
 _symmetry_equiv_pos_site_id
 _symmetry_equiv_pos_as_xyz
  1  'x, y, z'
loop_
 _atom_site_type_symbol
 _atom_site_label
 _atom_site_symmetry_multiplicity
 _atom_site_fract_x
 _atom_site_fract_y
 _atom_site_fract_z
 _atom_site_occupancy
  Zn  Zn0  1  0.63626000  0.51036000  0.50773000  1.0
  Zn  Zn1  1  0.35218000  0.50360000  0.50349000  1.0
  H  H2  1  0.72513000  0.46195000  0.07392000  1.0
  H  H3  1  0.83570000  0.90559000  0.48366000  1.0
  H  H4  1  0.84779000  0.52454000  0.31892000  1.0
  H  H5  1  0.11885000  0.67158000  0.35151000  1.0
  H  H6  1  0.71771000  0.48657000  0.92072000  1.0
  H  H7  1  0.28872000  0.50664000  0.08630000  1.0
  H  H8  1  0.29106000  0.11183000  0.55578000  1.0
  H  H9  1  0.76744000  0.90838000  0.38031000  1.0
  H  H10  1  0.13249000  0.43994000  0.62526000  1.0
  H  H11  1  0.85922000  0.67676000  0.36068000  1.0
  H  H12  1  0.10860000  0.51914000  0.30991000  1.0
  H  H13  1  0.28146000  0.53120000  0.93329000  1.0
  H  H14  1  0.29543000  0.88637000  0.54382000  1.0
  H  H15  1  0.75322000  0.13154000  0.39013000  1.0
  C  C16  1  0.50124000  0.74084000  0.49157000  1.0
  C  C17  1  0.62842000  0.47753000  0.04283000  1.0
  C  C18  1  0.49443000  0.52647000  0.83051000  1.0
  C  C19  1  0.50962000  0.47410000  0.17782000  1.0
  C  C20  1  0.50505000  0.46980000  0.25334000  1.0
  C  C21  1  0.48843000  0.53765000  0.75568000  1.0
  C  C22  1  0.61485000  0.94822000  0.47965000  1.0
  C  C23  1  0.50151000  0.87624000  0.49871000  1.0
  C  C24  1  0.38567000  0.93955000  0.52742000  1.0
  C  C25  1  0.38361000  0.06624000  0.53495000  1.0
  C  C26  1  0.49879000  0.13807000  0.51543000  1.0
  C  C27  1  0.49947000  0.47397000  0.34302000  1.0
  C  C28  1  0.61295000  0.07430000  0.48858000  1.0
  C  C29  1  0.75536000  0.09034000  0.45121000  1.0
  C  C30  1  0.75814000  0.94547000  0.44441000  1.0
  C  C31  1  0.06243000  0.53699000  0.44357000  1.0
  C  C32  1  0.07197000  0.46880000  0.57312000  1.0
  C  C33  1  0.92842000  0.47133000  0.57809000  1.0
  C  C34  1  0.92024000  0.53963000  0.44847000  1.0
  C  C35  1  0.90431000  0.58646000  0.36227000  1.0
  C  C36  1  0.06660000  0.58323000  0.35679000  1.0
  C  C37  1  0.49634000  0.27335000  0.51902000  1.0
  C  C38  1  0.48215000  0.53847000  0.66630000  1.0
  C  C39  1  0.62459000  0.49157000  0.95764000  1.0
  C  C40  1  0.49937000  0.51196000  0.91730000  1.0
  C  C41  1  0.37810000  0.51651000  0.96464000  1.0
  C  C42  1  0.38220000  0.50272000  0.04972000  1.0
  C  C43  1  0.50749000  0.48375000  0.09042000  1.0
  C  C44  1  0.86743000  0.43390000  0.65363000  1.0
  C  C45  1  0.86312000  0.14992000  0.50065000  1.0
  N  N46  1  0.14137000  0.50259000  0.50508000  1.0
  N  N47  1  0.84879000  0.50815000  0.51434000  1.0
  N  N48  1  0.82976000  0.40308000  0.71825000  1.0
  N  N49  1  0.95385000  0.19473000  0.53856000  1.0
  O  O50  1  0.61601000  0.69018000  0.47870000  1.0
  O  O51  1  0.38646000  0.68625000  0.50006000  1.0
  O  O52  1  0.61289000  0.46540000  0.38132000  1.0
  O  O53  1  0.38180000  0.48751000  0.37567000  1.0
  O  O54  1  0.61165000  0.32855000  0.52660000  1.0
  O  O55  1  0.38044000  0.32216000  0.51211000  1.0
  O  O56  1  0.59431000  0.55814000  0.62847000  1.0
  O  O57  1  0.36561000  0.51777000  0.63270000  1.0
