# generated using pymatgen
data_CdH14C24S4(NO2)2
_symmetry_space_group_name_H-M   'P 1'
_cell_length_a   17.04090000
_cell_length_b   19.38640000
_cell_length_c   19.62640000
_cell_angle_alpha   89.99990000
_cell_angle_beta   89.99990000
_cell_angle_gamma   80.84330000
_symmetry_Int_Tables_number   1
_chemical_formula_structural   CdH14C24S4(NO2)2
_chemical_formula_sum   'Cd8 H112 C192 S32 N16 O32'
_cell_volume   6401.18650655
_cell_formula_units_Z   8
loop_
 _symmetry_equiv_pos_site_id
 _symmetry_equiv_pos_as_xyz
  1  'x, y, z'
loop_
 _atom_site_type_symbol
 _atom_site_label
 _atom_site_symmetry_multiplicity
 _atom_site_fract_x
 _atom_site_fract_y
 _atom_site_fract_z
 _atom_site_occupancy
  Cd  Cd0  1  0.33958000  0.65838000  0.56236000  1.0
  Cd  Cd1  1  0.16042000  0.34162000  0.06236000  1.0
  Cd  Cd2  1  0.66042000  0.34162000  0.43764000  1.0
  Cd  Cd3  1  0.83958000  0.65838000  0.93764000  1.0
  Cd  Cd4  1  0.16222000  0.69398000  0.44003000  1.0
  Cd  Cd5  1  0.33778000  0.30602000  0.94003000  1.0
  Cd  Cd6  1  0.83778000  0.30602000  0.55997000  1.0
  Cd  Cd7  1  0.66222000  0.69398000  0.05997000  1.0
  H  H8  1  0.98636000  0.72093000  0.60388000  1.0
  H  H9  1  0.51364000  0.27907000  0.10388000  1.0
  H  H10  1  0.01364000  0.27907000  0.39612000  1.0
  H  H11  1  0.48636000  0.72093000  0.89612000  1.0
  H  H12  1  0.89836000  0.70568000  0.70415000  1.0
  H  H13  1  0.60164000  0.29432000  0.20415000  1.0
  H  H14  1  0.10164000  0.29432000  0.29585000  1.0
  H  H15  1  0.39836000  0.70568000  0.79585000  1.0
  H  H16  1  0.10476000  0.64468000  0.82864000  1.0
  H  H17  1  0.39524000  0.35532000  0.32864000  1.0
  H  H18  1  0.89524000  0.35531000  0.17136000  1.0
  H  H19  1  0.60476000  0.64468000  0.67137000  1.0
  H  H20  1  0.19275000  0.65279000  0.72672000  1.0
  H  H21  1  0.30725000  0.34721000  0.22672000  1.0
  H  H22  1  0.80725000  0.34721000  0.27328000  1.0
  H  H23  1  0.69275000  0.65280000  0.77328000  1.0
  H  H24  1  0.30858000  0.68423000  0.27015000  1.0
  H  H25  1  0.19142000  0.31577000  0.77015000  1.0
  H  H26  1  0.69142000  0.31577000  0.72984000  1.0
  H  H27  1  0.80858000  0.68423000  0.22985000  1.0
  H  H28  1  0.39251000  0.69985000  0.16732000  1.0
  H  H29  1  0.10749000  0.30015000  0.66733000  1.0
  H  H30  1  0.60749000  0.30015000  0.83267000  1.0
  H  H31  1  0.89251000  0.69985000  0.33268000  1.0
  H  H32  1  0.59976000  0.68247000  0.29420000  1.0
  H  H33  1  0.90024000  0.31754000  0.79420000  1.0
  H  H34  1  0.40024000  0.31754000  0.70580000  1.0
  H  H35  1  0.09976000  0.68247000  0.20580000  1.0
  H  H36  1  0.51505000  0.67076000  0.39744000  1.0
  H  H37  1  0.98495000  0.32925000  0.89744000  1.0
  H  H38  1  0.48495000  0.32925000  0.60256000  1.0
  H  H39  1  0.01505000  0.67076000  0.10256000  1.0
  H  H40  1  0.11729000  0.84181000  0.51284000  1.0
  H  H41  1  0.38271000  0.15819000  0.01284000  1.0
  H  H42  1  0.88271000  0.15819000  0.48717000  1.0
  H  H43  1  0.61729000  0.84180000  0.98716000  1.0
  H  H44  1  0.12773000  0.96810000  0.49881000  1.0
  H  H45  1  0.37227000  0.03190000  0.99881000  1.0
  H  H46  1  0.87227000  0.03189000  0.50119000  1.0
  H  H47  1  0.62773000  0.96810000  0.00119000  1.0
  H  H48  1  0.25953000  0.91130000  0.31281000  1.0
  H  H49  1  0.24047000  0.08870000  0.81281000  1.0
  H  H50  1  0.74047000  0.08871000  0.68719000  1.0
  H  H51  1  0.75953000  0.91130000  0.18719000  1.0
  H  H52  1  0.24232000  0.78853000  0.33507000  1.0
  H  H53  1  0.25769000  0.21147000  0.83507000  1.0
  H  H54  1  0.75768000  0.21147000  0.66493000  1.0
  H  H55  1  0.74232000  0.78853000  0.16493000  1.0
  H  H56  1  0.29127000  0.01788000  0.31461000  1.0
  H  H57  1  0.20873000  0.98212000  0.81461000  1.0
  H  H58  1  0.70872000  0.98212000  0.68539000  1.0
  H  H59  1  0.79127000  0.01788000  0.18539000  1.0
  H  H60  1  0.05814000  0.35523000  0.54927000  1.0
  H  H61  1  0.44185000  0.64477000  0.04928000  1.0
  H  H62  1  0.94185000  0.64477000  0.45073000  1.0
  H  H63  1  0.55814000  0.35523000  0.95073000  1.0
  H  H64  1  0.07540000  0.58961000  0.53260000  1.0
  H  H65  1  0.42460000  0.41039000  0.03260000  1.0
  H  H66  1  0.92460000  0.41039000  0.46740000  1.0
  H  H67  1  0.57540000  0.58961000  0.96740000  1.0
  H  H68  1  0.06394000  0.46471000  0.54395000  1.0
  H  H69  1  0.43607000  0.53529000  0.04395000  1.0
  H  H70  1  0.93606000  0.53529000  0.45605000  1.0
  H  H71  1  0.56393000  0.46471000  0.95605000  1.0
  H  H72  1  0.23987000  0.42181000  0.38353000  1.0
  H  H73  1  0.26014000  0.57819000  0.88353000  1.0
  H  H74  1  0.76014000  0.57819000  0.61647000  1.0
  H  H75  1  0.73986000  0.42181000  0.11647000  1.0
  H  H76  1  0.24504000  0.54963000  0.38077000  1.0
  H  H77  1  0.25496000  0.45037000  0.88077000  1.0
  H  H78  1  0.75497000  0.45037000  0.61923000  1.0
  H  H79  1  0.74504000  0.54963000  0.11924000  1.0
  H  H80  1  0.26486000  0.53328000  0.62546000  1.0
  H  H81  1  0.23514000  0.46672000  0.12546000  1.0
  H  H82  1  0.73514000  0.46673000  0.37454000  1.0
  H  H83  1  0.76486000  0.53327000  0.87454000  1.0
  H  H84  1  0.27101000  0.40430000  0.61765000  1.0
  H  H85  1  0.22899000  0.59571000  0.11765000  1.0
  H  H86  1  0.72899000  0.59571000  0.38235000  1.0
  H  H87  1  0.77101000  0.40429000  0.88235000  1.0
  H  H88  1  0.44327000  0.40543000  0.45467000  1.0
  H  H89  1  0.05673000  0.59457000  0.95467000  1.0
  H  H90  1  0.55673000  0.59457000  0.54533000  1.0
  H  H91  1  0.94327000  0.40543000  0.04533000  1.0
  H  H92  1  0.42903000  0.53399000  0.47043000  1.0
  H  H93  1  0.07097000  0.46601000  0.97043000  1.0
  H  H94  1  0.57097000  0.46601000  0.52957000  1.0
  H  H95  1  0.92903000  0.53399000  0.02958000  1.0
  H  H96  1  0.45237000  0.29499000  0.44863000  1.0
  H  H97  1  0.04763000  0.70501000  0.94863000  1.0
  H  H98  1  0.54763000  0.70501000  0.55137000  1.0
  H  H99  1  0.95237000  0.29499000  0.05137000  1.0
  H  H100  1  0.20268000  0.02390000  0.67385000  1.0
  H  H101  1  0.29732000  0.97610000  0.17385000  1.0
  H  H102  1  0.79732000  0.97611000  0.32615000  1.0
  H  H103  1  0.70268000  0.02390000  0.82615000  1.0
  H  H104  1  0.24462000  0.78048000  0.65635000  1.0
  H  H105  1  0.25538000  0.21951000  0.15636000  1.0
  H  H106  1  0.75538000  0.21952000  0.34365000  1.0
  H  H107  1  0.74462000  0.78048000  0.84364000  1.0
  H  H108  1  0.22902000  0.90819000  0.67666000  1.0
  H  H109  1  0.27098000  0.09181000  0.17666000  1.0
  H  H110  1  0.77098000  0.09181000  0.32335000  1.0
  H  H111  1  0.72902000  0.90819000  0.82334000  1.0
  H  H112  1  0.37553000  0.92193000  0.49801000  1.0
  H  H113  1  0.12448000  0.07807000  0.99801000  1.0
  H  H114  1  0.62448000  0.07807000  0.50199000  1.0
  H  H115  1  0.87552000  0.92193000  0.00199000  1.0
  H  H116  1  0.38435000  0.79291000  0.48605000  1.0
  H  H117  1  0.11565000  0.20709000  0.98605000  1.0
  H  H118  1  0.61565000  0.20709000  0.51395000  1.0
  H  H119  1  0.88435000  0.79291000  0.01395000  1.0
  C  C120  1  0.14563000  0.68848000  0.59771000  1.0
  C  C121  1  0.35437000  0.31152000  0.09771000  1.0
  C  C122  1  0.85437000  0.31152000  0.40230000  1.0
  C  C123  1  0.64563000  0.68848000  0.90230000  1.0
  C  C124  1  0.09417000  0.68682000  0.65946000  1.0
  C  C125  1  0.40583000  0.31318000  0.15946000  1.0
  C  C126  1  0.90583000  0.31318000  0.34054000  1.0
  C  C127  1  0.59417000  0.68682000  0.84054000  1.0
  C  C128  1  0.01139000  0.70336000  0.65316000  1.0
  C  C129  1  0.48861000  0.29664000  0.15316000  1.0
  C  C130  1  0.98861000  0.29664000  0.34684000  1.0
  C  C131  1  0.51139000  0.70335000  0.84684000  1.0
  C  C132  1  0.96288000  0.69579000  0.70869000  1.0
  C  C133  1  0.53712000  0.30421000  0.20869000  1.0
  C  C134  1  0.03712000  0.30422000  0.29131000  1.0
  C  C135  1  0.46288000  0.69579000  0.79131000  1.0
  C  C136  1  0.99653000  0.67418000  0.77185000  1.0
  C  C137  1  0.50346000  0.32582000  0.27185000  1.0
  C  C138  1  0.00346000  0.32582000  0.22815000  1.0
  C  C139  1  0.49654000  0.67418000  0.72815000  1.0
  C  C140  1  0.07951000  0.66041000  0.77889000  1.0
  C  C141  1  0.42049000  0.33959000  0.27889000  1.0
  C  C142  1  0.92049000  0.33959000  0.22111000  1.0
  C  C143  1  0.57951000  0.66041000  0.72111000  1.0
  C  C144  1  0.12819000  0.66541000  0.72270000  1.0
  C  C145  1  0.37181000  0.33459000  0.22271000  1.0
  C  C146  1  0.87181000  0.33459000  0.27729000  1.0
  C  C147  1  0.62819000  0.66541000  0.77730000  1.0
  C  C148  1  0.94305000  0.66558000  0.83065000  1.0
  C  C149  1  0.55695000  0.33442000  0.33065000  1.0
  C  C150  1  0.05695000  0.33442000  0.16935000  1.0
  C  C151  1  0.44305000  0.66558000  0.66935000  1.0
  C  C152  1  0.35921000  0.66909000  0.40245000  1.0
  C  C153  1  0.14079000  0.33091000  0.90245000  1.0
  C  C154  1  0.64079000  0.33091000  0.59755000  1.0
  C  C155  1  0.85921000  0.66909000  0.09755000  1.0
  C  C156  1  0.40750000  0.67681000  0.33974000  1.0
  C  C157  1  0.09250000  0.32319000  0.83974000  1.0
  C  C158  1  0.59250000  0.32319000  0.66026000  1.0
  C  C159  1  0.90750000  0.67681000  0.16026000  1.0
  C  C160  1  0.37231000  0.68474000  0.27494000  1.0
  C  C161  1  0.12769000  0.31526000  0.77494000  1.0
  C  C162  1  0.62769000  0.31526000  0.72506000  1.0
  C  C163  1  0.87231000  0.68474000  0.22506000  1.0
  C  C164  1  0.41895000  0.69271000  0.21796000  1.0
  C  C165  1  0.08106000  0.30729000  0.71796000  1.0
  C  C166  1  0.58105000  0.30729000  0.78203000  1.0
  C  C167  1  0.91895000  0.69271000  0.28204000  1.0
  C  C168  1  0.50113000  0.69144000  0.22505000  1.0
  C  C169  1  0.99886000  0.30857000  0.72505000  1.0
  C  C170  1  0.49886000  0.30857000  0.77495000  1.0
  C  C171  1  0.00113000  0.69144000  0.27495000  1.0
  C  C172  1  0.53590000  0.68334000  0.28985000  1.0
  C  C173  1  0.96409000  0.31668000  0.78985000  1.0
  C  C174  1  0.46409000  0.31667000  0.71015000  1.0
  C  C175  1  0.03590000  0.68334000  0.21015000  1.0
  C  C176  1  0.48934000  0.67662000  0.34670000  1.0
  C  C177  1  0.01066000  0.32339000  0.84670000  1.0
  C  C178  1  0.51066000  0.32339000  0.65330000  1.0
  C  C179  1  0.98934000  0.67663000  0.15330000  1.0
  C  C180  1  0.55380000  0.69658000  0.16477000  1.0
  C  C181  1  0.94619000  0.30343000  0.66477000  1.0
  C  C182  1  0.44619000  0.30343000  0.83523000  1.0
  C  C183  1  0.05380000  0.69658000  0.33523000  1.0
  C  C184  1  0.14809000  0.86021000  0.46934000  1.0
  C  C185  1  0.35191000  0.13979000  0.96934000  1.0
  C  C186  1  0.85191000  0.13979000  0.53066000  1.0
  C  C187  1  0.64809000  0.86021000  0.03066000  1.0
  C  C188  1  0.15421000  0.93028000  0.46092000  1.0
  C  C189  1  0.34578000  0.06972000  0.96092000  1.0
  C  C190  1  0.84578000  0.06971000  0.53908000  1.0
  C  C191  1  0.65421000  0.93028000  0.03908000  1.0
  C  C192  1  0.19626000  0.95149000  0.40490000  1.0
  C  C193  1  0.30374000  0.04851000  0.90490000  1.0
  C  C194  1  0.80374000  0.04851000  0.59510000  1.0
  C  C195  1  0.69626000  0.95149000  0.09510000  1.0
  C  C196  1  0.22817000  0.89896000  0.35847000  1.0
  C  C197  1  0.27183000  0.10104000  0.85847000  1.0
  C  C198  1  0.77183000  0.10104000  0.64153000  1.0
  C  C199  1  0.72817000  0.89896000  0.14153000  1.0
  C  C200  1  0.21882000  0.83022000  0.37030000  1.0
  C  C201  1  0.28118000  0.16978000  0.87030000  1.0
  C  C202  1  0.78118000  0.16978000  0.62970000  1.0
  C  C203  1  0.71882000  0.83022000  0.12970000  1.0
  C  C204  1  0.20590000  0.02431000  0.39676000  1.0
  C  C205  1  0.29409000  0.97569000  0.89676000  1.0
  C  C206  1  0.79410000  0.97569000  0.60324000  1.0
  C  C207  1  0.70590000  0.02431000  0.10324000  1.0
  C  C208  1  0.25371000  0.05011000  0.35103000  1.0
  C  C209  1  0.24629000  0.94990000  0.85103000  1.0
  C  C210  1  0.74629000  0.94989000  0.64897000  1.0
  C  C211  1  0.75371000  0.05011000  0.14896000  1.0
  C  C212  1  0.19223000  0.15816000  0.41917000  1.0
  C  C213  1  0.30777000  0.84184000  0.91917000  1.0
  C  C214  1  0.80776000  0.84184000  0.58083000  1.0
  C  C215  1  0.69223000  0.15816000  0.08083000  1.0
  C  C216  1  0.17074000  0.22360000  0.44488000  1.0
  C  C217  1  0.32926000  0.77640000  0.94488000  1.0
  C  C218  1  0.82926000  0.77640000  0.55512000  1.0
  C  C219  1  0.67074000  0.22360000  0.05512000  1.0
  C  C220  1  0.09910000  0.32774000  0.51219000  1.0
  C  C221  1  0.40090000  0.67226000  0.01219000  1.0
  C  C222  1  0.90089000  0.67226000  0.48781000  1.0
  C  C223  1  0.59910000  0.32774000  0.98781000  1.0
  C  C224  1  0.14588000  0.35698000  0.46818000  1.0
  C  C225  1  0.35411000  0.64302000  0.96819000  1.0
  C  C226  1  0.85411000  0.64302000  0.53181000  1.0
  C  C227  1  0.64588000  0.35698000  0.03181000  1.0
  C  C228  1  0.11093000  0.55056000  0.50050000  1.0
  C  C229  1  0.38907000  0.44944000  0.00050000  1.0
  C  C230  1  0.88907000  0.44944000  0.49950000  1.0
  C  C231  1  0.61093000  0.55056000  0.99950000  1.0
  C  C232  1  0.10455000  0.48052000  0.50636000  1.0
  C  C233  1  0.39545000  0.51948000  0.00636000  1.0
  C  C234  1  0.89545000  0.51948000  0.49364000  1.0
  C  C235  1  0.60455000  0.48052000  0.99364000  1.0
  C  C236  1  0.15055000  0.43107000  0.46385000  1.0
  C  C237  1  0.34945000  0.56893000  0.96385000  1.0
  C  C238  1  0.84945000  0.56893000  0.53615000  1.0
  C  C239  1  0.65055000  0.43107000  0.03615000  1.0
  C  C240  1  0.20194000  0.45694000  0.41763000  1.0
  C  C241  1  0.29807000  0.54306000  0.91763000  1.0
  C  C242  1  0.79806000  0.54306000  0.58237000  1.0
  C  C243  1  0.70193000  0.45694000  0.08237000  1.0
  C  C244  1  0.20521000  0.52808000  0.41548000  1.0
  C  C245  1  0.29479000  0.47192000  0.91548000  1.0
  C  C246  1  0.79479000  0.47192000  0.58452000  1.0
  C  C247  1  0.70521000  0.52808000  0.08452000  1.0
  C  C248  1  0.30384000  0.50241000  0.58887000  1.0
  C  C249  1  0.19616000  0.49759000  0.08887000  1.0
  C  C250  1  0.69616000  0.49759000  0.41113000  1.0
  C  C251  1  0.80384000  0.50241000  0.91113000  1.0
  C  C252  1  0.30743000  0.43055000  0.58365000  1.0
  C  C253  1  0.19257000  0.56945000  0.08365000  1.0
  C  C254  1  0.69257000  0.56945000  0.41635000  1.0
  C  C255  1  0.80743000  0.43055000  0.91635000  1.0
  C  C256  1  0.35769000  0.39281000  0.53499000  1.0
  C  C257  1  0.14231000  0.60718000  0.03499000  1.0
  C  C258  1  0.64231000  0.60719000  0.46501000  1.0
  C  C259  1  0.85769000  0.39281000  0.96501000  1.0
  C  C260  1  0.40265000  0.43110000  0.49327000  1.0
  C  C261  1  0.09735000  0.56890000  0.99327000  1.0
  C  C262  1  0.59735000  0.56891000  0.50673000  1.0
  C  C263  1  0.90265000  0.43109000  0.00673000  1.0
  C  C264  1  0.39532000  0.50275000  0.50193000  1.0
  C  C265  1  0.10468000  0.49725000  0.00193000  1.0
  C  C266  1  0.60468000  0.49726000  0.49807000  1.0
  C  C267  1  0.89532000  0.50274000  0.99807000  1.0
  C  C268  1  0.36347000  0.31740000  0.52870000  1.0
  C  C269  1  0.13653000  0.68260000  0.02869000  1.0
  C  C270  1  0.63653000  0.68260000  0.47130000  1.0
  C  C271  1  0.86347000  0.31739000  0.97131000  1.0
  C  C272  1  0.41186000  0.27603000  0.48506000  1.0
  C  C273  1  0.08814000  0.72397000  0.98506000  1.0
  C  C274  1  0.58814000  0.72397000  0.51494000  1.0
  C  C275  1  0.91186000  0.27603000  0.01494000  1.0
  C  C276  1  0.33977000  0.19020000  0.55175000  1.0
  C  C277  1  0.16023000  0.80980000  0.05175000  1.0
  C  C278  1  0.66023000  0.80980000  0.44825000  1.0
  C  C279  1  0.83978000  0.19020000  0.94825000  1.0
  C  C280  1  0.31496000  0.13139000  0.57554000  1.0
  C  C281  1  0.18504000  0.86861000  0.07554000  1.0
  C  C282  1  0.68504000  0.86861000  0.42447000  1.0
  C  C283  1  0.81497000  0.13138000  0.92446000  1.0
  C  C284  1  0.29309000  0.00303000  0.59601000  1.0
  C  C285  1  0.20691000  0.99697000  0.09601000  1.0
  C  C286  1  0.70691000  0.99697000  0.40399000  1.0
  C  C287  1  0.79309000  0.00303000  0.90399000  1.0
  C  C288  1  0.24399000  0.04387000  0.63959000  1.0
  C  C289  1  0.25601000  0.95613000  0.13959000  1.0
  C  C290  1  0.75601000  0.95613000  0.36041000  1.0
  C  C291  1  0.74399000  0.04387000  0.86041000  1.0
  C  C292  1  0.27153000  0.81428000  0.62199000  1.0
  C  C293  1  0.22847000  0.18572000  0.12199000  1.0
  C  C294  1  0.72847000  0.18572000  0.37801000  1.0
  C  C295  1  0.77153000  0.81428000  0.87801000  1.0
  C  C296  1  0.26331000  0.88573000  0.63293000  1.0
  C  C297  1  0.23669000  0.11427000  0.13293000  1.0
  C  C298  1  0.73669000  0.11427000  0.36708000  1.0
  C  C299  1  0.76331000  0.88573000  0.86707000  1.0
  C  C300  1  0.30019000  0.92762000  0.58821000  1.0
  C  C301  1  0.19981000  0.07238000  0.08821000  1.0
  C  C302  1  0.69981000  0.07238000  0.41180000  1.0
  C  C303  1  0.80019000  0.92761000  0.91179000  1.0
  C  C304  1  0.34522000  0.89300000  0.53460000  1.0
  C  C305  1  0.15479000  0.10700000  0.03460000  1.0
  C  C306  1  0.65479000  0.10700000  0.46540000  1.0
  C  C307  1  0.84521000  0.89300000  0.96540000  1.0
  C  C308  1  0.35017000  0.82119000  0.52718000  1.0
  C  C309  1  0.14983000  0.17881000  0.02718000  1.0
  C  C310  1  0.64983000  0.17881000  0.47282000  1.0
  C  C311  1  0.85017000  0.82119000  0.97282000  1.0
  S  S312  1  0.15315000  0.08638000  0.45230000  1.0
  S  S313  1  0.34684000  0.91362000  0.95230000  1.0
  S  S314  1  0.84684000  0.91362000  0.54770000  1.0
  S  S315  1  0.65316000  0.08638000  0.04770000  1.0
  S  S316  1  0.25979000  0.13765000  0.35185000  1.0
  S  S317  1  0.24021000  0.86235000  0.85184000  1.0
  S  S318  1  0.74021000  0.86235000  0.64815000  1.0
  S  S319  1  0.75979000  0.13765000  0.14815000  1.0
  S  S320  1  0.10238000  0.23915000  0.51243000  1.0
  S  S321  1  0.39762000  0.76085000  0.01243000  1.0
  S  S322  1  0.89761000  0.76085000  0.48757000  1.0
  S  S323  1  0.60238000  0.23915000  0.98757000  1.0
  S  S324  1  0.20592000  0.29781000  0.41409000  1.0
  S  S325  1  0.29408000  0.70219000  0.91409000  1.0
  S  S326  1  0.79407000  0.70219000  0.58591000  1.0
  S  S327  1  0.70592000  0.29781000  0.08591000  1.0
  S  S328  1  0.24350000  0.13246000  0.64030000  1.0
  S  S329  1  0.25650000  0.86754000  0.14030000  1.0
  S  S330  1  0.75650000  0.86754000  0.35970000  1.0
  S  S331  1  0.74350000  0.13246000  0.85970000  1.0
  S  S332  1  0.35307000  0.04775000  0.54432000  1.0
  S  S333  1  0.14693000  0.95225000  0.04432000  1.0
  S  S334  1  0.64693000  0.95225000  0.45568000  1.0
  S  S335  1  0.85307000  0.04775000  0.95567000  1.0
  S  S336  1  0.30485000  0.27395000  0.58313000  1.0
  S  S337  1  0.19515000  0.72605000  0.08313000  1.0
  S  S338  1  0.69515000  0.72605000  0.41687000  1.0
  S  S339  1  0.80485000  0.27395000  0.91687000  1.0
  S  S340  1  0.41094000  0.18772000  0.48665000  1.0
  S  S341  1  0.08906000  0.81228000  0.98665000  1.0
  S  S342  1  0.58906000  0.81228000  0.51335000  1.0
  S  S343  1  0.91094000  0.18772000  0.01335000  1.0
  N  N344  1  0.18022000  0.81065000  0.42528000  1.0
  N  N345  1  0.31978000  0.18935000  0.92528000  1.0
  N  N346  1  0.81978000  0.18935000  0.57472000  1.0
  N  N347  1  0.68022000  0.81065000  0.07472000  1.0
  N  N348  1  0.16039000  0.57461000  0.45589000  1.0
  N  N349  1  0.33961000  0.42539000  0.95590000  1.0
  N  N350  1  0.83961000  0.42539000  0.54411000  1.0
  N  N351  1  0.66039000  0.57461000  0.04411000  1.0
  N  N352  1  0.34701000  0.53838000  0.54883000  1.0
  N  N353  1  0.15299000  0.46162000  0.04883000  1.0
  N  N354  1  0.65299000  0.46162000  0.45117000  1.0
  N  N355  1  0.84701000  0.53838000  0.95117000  1.0
  N  N356  1  0.31371000  0.78215000  0.56967000  1.0
  N  N357  1  0.18629000  0.21785000  0.06967000  1.0
  N  N358  1  0.68629000  0.21785000  0.43033000  1.0
  N  N359  1  0.81371000  0.78215000  0.93033000  1.0
  O  O360  1  0.11606000  0.72457000  0.54670000  1.0
  O  O361  1  0.38394000  0.27543000  0.04670000  1.0
  O  O362  1  0.88394000  0.27543000  0.45330000  1.0
  O  O363  1  0.61606000  0.72457000  0.95330000  1.0
  O  O364  1  0.21415000  0.65165000  0.60004000  1.0
  O  O365  1  0.28585000  0.34835000  0.10004000  1.0
  O  O366  1  0.78585000  0.34835000  0.39996000  1.0
  O  O367  1  0.71415000  0.65165000  0.89996000  1.0
  O  O368  1  0.86952000  0.66593000  0.81906000  1.0
  O  O369  1  0.63048000  0.33406000  0.31906000  1.0
  O  O370  1  0.13048000  0.33406000  0.18094000  1.0
  O  O371  1  0.36952000  0.66594000  0.68094000  1.0
  O  O372  1  0.97284000  0.65856000  0.89077000  1.0
  O  O373  1  0.52716000  0.34144000  0.39077000  1.0
  O  O374  1  0.02716000  0.34144000  0.10923000  1.0
  O  O375  1  0.47284000  0.65856000  0.60924000  1.0
  O  O376  1  0.28789000  0.65958000  0.39466000  1.0
  O  O377  1  0.21211000  0.34042000  0.89466000  1.0
  O  O378  1  0.71211000  0.34042000  0.60534000  1.0
  O  O379  1  0.78789000  0.65958000  0.10534000  1.0
  O  O380  1  0.39468000  0.67268000  0.45946000  1.0
  O  O381  1  0.10532000  0.32733000  0.95946000  1.0
  O  O382  1  0.60532000  0.32732000  0.54054000  1.0
  O  O383  1  0.89468000  0.67268000  0.04054000  1.0
  O  O384  1  0.52381000  0.70203000  0.10494000  1.0
  O  O385  1  0.97619000  0.29797000  0.60494000  1.0
  O  O386  1  0.47619000  0.29797000  0.89506000  1.0
  O  O387  1  0.02381000  0.70203000  0.39506000  1.0
  O  O388  1  0.62804000  0.69370000  0.17575000  1.0
  O  O389  1  0.87196000  0.30630000  0.67575000  1.0
  O  O390  1  0.37196000  0.30630000  0.82425000  1.0
  O  O391  1  0.12804000  0.69370000  0.32425000  1.0
