# generated using pymatgen
data_RbH10C14S2NO8
_symmetry_space_group_name_H-M   'P 1'
_cell_length_a   6.95467000
_cell_length_b   11.84790000
_cell_length_c   19.97200000
_cell_angle_alpha   103.03400000
_cell_angle_beta   90.00000000
_cell_angle_gamma   90.00000000
_symmetry_Int_Tables_number   1
_chemical_formula_structural   RbH10C14S2NO8
_chemical_formula_sum   'Rb4 H40 C56 S8 N4 O32'
_cell_volume   1603.25948817
_cell_formula_units_Z   4
loop_
 _symmetry_equiv_pos_site_id
 _symmetry_equiv_pos_as_xyz
  1  'x, y, z'
loop_
 _atom_site_type_symbol
 _atom_site_label
 _atom_site_symmetry_multiplicity
 _atom_site_fract_x
 _atom_site_fract_y
 _atom_site_fract_z
 _atom_site_occupancy
  Rb  Rb0  1  0.07192000  0.13778000  0.50813000  1.0
  Rb  Rb1  1  0.57193000  0.86222000  0.49187000  1.0
  Rb  Rb2  1  0.33418000  0.41301000  0.49560000  1.0
  Rb  Rb3  1  0.83418000  0.58698000  0.50440000  1.0
  H  H4  1  0.67911000  0.47084000  0.33351000  1.0
  H  H5  1  0.17911000  0.52916000  0.66649000  1.0
  H  H6  1  0.69181000  0.50163000  0.21349000  1.0
  H  H7  1  0.19181000  0.49837000  0.78651000  1.0
  H  H8  1  0.98156000  0.17452000  0.14565000  1.0
  H  H9  1  0.48157000  0.82548000  0.85435000  1.0
  H  H10  1  0.97071000  0.14415000  0.26516000  1.0
  H  H11  1  0.47072000  0.85585000  0.73485000  1.0
  H  H12  1  0.35654000  0.25268000  0.30746000  1.0
  H  H13  1  0.85654000  0.74732000  0.69253000  1.0
  H  H14  1  0.33979000  0.25706000  0.18228000  1.0
  H  H15  1  0.83979000  0.74294000  0.81771000  1.0
  H  H16  1  0.62790000  0.92826000  0.12864000  1.0
  H  H17  1  0.12790000  0.07174000  0.87136000  1.0
  H  H18  1  0.66138000  0.92833000  0.25403000  1.0
  H  H19  1  0.16138000  0.07167000  0.74597000  1.0
  H  H20  1  0.93207000  0.29490000  0.00838000  1.0
  H  H21  1  0.43207000  0.70510000  0.99162000  1.0
  H  H22  1  0.55369000  0.03041000  0.98255000  1.0
  H  H23  1  0.05368000  0.96959000  0.01744000  1.0
  H  H24  1  0.37779000  0.34688000  0.72628000  1.0
  H  H25  1  0.87779000  0.65312000  0.27372000  1.0
  H  H26  1  0.37896000  0.32796000  0.84857000  1.0
  H  H27  1  0.87896000  0.67204000  0.15143000  1.0
  H  H28  1  0.66449000  0.99845000  0.78673000  1.0
  H  H29  1  0.16449000  0.00155000  0.21327000  1.0
  H  H30  1  0.66510000  0.01798000  0.66419000  1.0
  H  H31  1  0.16510000  0.98202000  0.33581000  1.0
  H  H32  1  0.68176000  0.56275000  0.73673000  1.0
  H  H33  1  0.18176000  0.43725000  0.26327000  1.0
  H  H34  1  0.72278000  0.57412000  0.86327000  1.0
  H  H35  1  0.22278000  0.42588000  0.13673000  1.0
  H  H36  1  0.01695000  0.24700000  0.81725000  1.0
  H  H37  1  0.51695000  0.75300000  0.18275000  1.0
  H  H38  1  0.98991000  0.23839000  0.69137000  1.0
  H  H39  1  0.48991000  0.76161000  0.30863000  1.0
  H  H40  1  0.43895000  0.21562000  0.99004000  1.0
  H  H41  1  0.93895000  0.78438000  0.00996000  1.0
  H  H42  1  0.80137000  0.47708000  0.01354000  1.0
  H  H43  1  0.30137000  0.52292000  0.98646000  1.0
  C  C44  1  0.82654000  0.30611000  0.30559000  1.0
  C  C45  1  0.32654000  0.69389000  0.69441000  1.0
  C  C46  1  0.74671000  0.40715000  0.29229000  1.0
  C  C47  1  0.24671000  0.59285000  0.70771000  1.0
  C  C48  1  0.75363000  0.42407000  0.22553000  1.0
  C  C49  1  0.25363000  0.57593000  0.77447000  1.0
  C  C50  1  0.83819000  0.34089000  0.17263000  1.0
  C  C51  1  0.33818000  0.65911000  0.82737000  1.0
  C  C52  1  0.91718000  0.23963000  0.18684000  1.0
  C  C53  1  0.41718000  0.76037000  0.81316000  1.0
  C  C54  1  0.91212000  0.22266000  0.25348000  1.0
  C  C55  1  0.41212000  0.77734000  0.74652000  1.0
  C  C56  1  0.51342000  0.09118000  0.28676000  1.0
  C  C57  1  0.01342000  0.90882000  0.71324000  1.0
  C  C58  1  0.41828000  0.18333000  0.26804000  1.0
  C  C59  1  0.91828000  0.81667000  0.73196000  1.0
  C  C60  1  0.40718000  0.18504000  0.19875000  1.0
  C  C61  1  0.90718000  0.81496000  0.80124000  1.0
  C  C62  1  0.48587000  0.09445000  0.14886000  1.0
  C  C63  1  0.98587000  0.90555000  0.85114000  1.0
  C  C64  1  0.57258000  0.99971000  0.16816000  1.0
  C  C65  1  0.07259000  0.00029000  0.83184000  1.0
  C  C66  1  0.58906000  0.99891000  0.23745000  1.0
  C  C67  1  0.08906000  0.00109000  0.76255000  1.0
  C  C68  1  0.84688000  0.36159000  0.10192000  1.0
  C  C69  1  0.34688000  0.63841000  0.89808000  1.0
  C  C70  1  0.48267000  0.10446000  0.07617000  1.0
  C  C71  1  0.98267000  0.89554000  0.92383000  1.0
  C  C72  1  0.52197000  0.18399000  0.68926000  1.0
  C  C73  1  0.02197000  0.81600000  0.31074000  1.0
  C  C74  1  0.44095000  0.27140000  0.74030000  1.0
  C  C75  1  0.94095000  0.72860000  0.25970000  1.0
  C  C76  1  0.44141000  0.26037000  0.80823000  1.0
  C  C77  1  0.94140000  0.73963000  0.19177000  1.0
  C  C78  1  0.52122000  0.16106000  0.82446000  1.0
  C  C79  1  0.02122000  0.83894000  0.17554000  1.0
  C  C80  1  0.60230000  0.07422000  0.77270000  1.0
  C  C81  1  0.10230000  0.92578000  0.22730000  1.0
  C  C82  1  0.60344000  0.08515000  0.70484000  1.0
  C  C83  1  0.10344000  0.91485000  0.29516000  1.0
  C  C84  1  0.83417000  0.40087000  0.70768000  1.0
  C  C85  1  0.33417000  0.59914000  0.29232000  1.0
  C  C86  1  0.75934000  0.49574000  0.75511000  1.0
  C  C87  1  0.25934000  0.50426000  0.24489000  1.0
  C  C88  1  0.77918000  0.50081000  0.82529000  1.0
  C  C89  1  0.27918000  0.49919000  0.17471000  1.0
  C  C90  1  0.86896000  0.40962000  0.84722000  1.0
  C  C91  1  0.36896000  0.59038000  0.15278000  1.0
  C  C92  1  0.94779000  0.31658000  0.79885000  1.0
  C  C93  1  0.44780000  0.68342000  0.20116000  1.0
  C  C94  1  0.93282000  0.31204000  0.72903000  1.0
  C  C95  1  0.43282000  0.68796000  0.27098000  1.0
  C  C96  1  0.51546000  0.14437000  0.89591000  1.0
  C  C97  1  0.01546000  0.85563000  0.10409000  1.0
  C  C98  1  0.87585000  0.40330000  0.92061000  1.0
  C  C99  1  0.37586000  0.59670000  0.07939000  1.0
  S  S100  1  0.82328000  0.28352000  0.39106000  1.0
  S  S101  1  0.32328000  0.71648000  0.60894000  1.0
  S  S102  1  0.55869000  0.09707000  0.37504000  1.0
  S  S103  1  0.05869000  0.90292000  0.62496000  1.0
  S  S104  1  0.52488000  0.20147000  0.60306000  1.0
  S  S105  1  0.02488000  0.79853000  0.39694000  1.0
  S  S106  1  0.79247000  0.38546000  0.61796000  1.0
  S  S107  1  0.29247000  0.61454000  0.38204000  1.0
  N  N108  1  0.77071000  0.15136000  0.38739000  1.0
  N  N109  1  0.27071000  0.84864000  0.61261000  1.0
  N  N110  1  0.73078000  0.25324000  0.59048000  1.0
  N  N111  1  0.23078000  0.74676000  0.40952000  1.0
  O  O112  1  0.02125000  0.29665000  0.41522000  1.0
  O  O113  1  0.52125000  0.70335000  0.58478000  1.0
  O  O114  1  0.68616000  0.36742000  0.42883000  1.0
  O  O115  1  0.18617000  0.63258000  0.57117000  1.0
  O  O116  1  0.57370000  0.97803000  0.38204000  1.0
  O  O117  1  0.07370000  0.02197000  0.61796000  1.0
  O  O118  1  0.40805000  0.16804000  0.41430000  1.0
  O  O119  1  0.90805000  0.83196000  0.58570000  1.0
  O  O120  1  0.79115000  0.45450000  0.08872000  1.0
  O  O121  1  0.29115000  0.54550000  0.91128000  1.0
  O  O122  1  0.92116000  0.27465000  0.05618000  1.0
  O  O123  1  0.42116000  0.72535000  0.94382000  1.0
  O  O124  1  0.42075000  0.19449000  0.06092000  1.0
  O  O125  1  0.92075000  0.80550000  0.93908000  1.0
  O  O126  1  0.55281000  0.01476000  0.03155000  1.0
  O  O127  1  0.05281000  0.98524000  0.96845000  1.0
  O  O128  1  0.51852000  0.08643000  0.55864000  1.0
  O  O129  1  0.01852000  0.91357000  0.44136000  1.0
  O  O130  1  0.36431000  0.27812000  0.59774000  1.0
  O  O131  1  0.86431000  0.72188000  0.40226000  1.0
  O  O132  1  0.97761000  0.39676000  0.58571000  1.0
  O  O133  1  0.47761000  0.60324000  0.41429000  1.0
  O  O134  1  0.64690000  0.47038000  0.61082000  1.0
  O  O135  1  0.14690000  0.52962000  0.38918000  1.0
  O  O136  1  0.56568000  0.05057000  0.90943000  1.0
  O  O137  1  0.06568000  0.94943000  0.09057000  1.0
  O  O138  1  0.45040000  0.23424000  0.94159000  1.0
  O  O139  1  0.95040000  0.76576000  0.05841000  1.0
  O  O140  1  0.94712000  0.31668000  0.93706000  1.0
  O  O141  1  0.44712000  0.68333000  0.06294000  1.0
  O  O142  1  0.79878000  0.49164000  0.96459000  1.0
  O  O143  1  0.29878000  0.50836000  0.03541000  1.0
