# generated using pymatgen
data_ZnSiH16C24N4(O4F3)2
_symmetry_space_group_name_H-M   'P 1'
_cell_length_a   7.89418000
_cell_length_b   13.96080000
_cell_length_c   13.96070000
_cell_angle_alpha   89.99930000
_cell_angle_beta   89.99960000
_cell_angle_gamma   89.99970000
_symmetry_Int_Tables_number   1
_chemical_formula_structural   ZnSiH16C24N4(O4F3)2
_chemical_formula_sum   'Zn1 Si1 H16 C24 N4 O8 F6'
_cell_volume   1538.59573746
_cell_formula_units_Z   1
loop_
 _symmetry_equiv_pos_site_id
 _symmetry_equiv_pos_as_xyz
  1  'x, y, z'
loop_
 _atom_site_type_symbol
 _atom_site_label
 _atom_site_symmetry_multiplicity
 _atom_site_fract_x
 _atom_site_fract_y
 _atom_site_fract_z
 _atom_site_occupancy
  Zn  Zn0  1  0.50002000  0.49999000  0.50001000  1.0
  Si  Si1  1  0.00001000  0.50000000  0.50000000  1.0
  H  H2  1  0.23441000  0.66136000  0.49999000  1.0
  H  H3  1  0.76562000  0.66135000  0.49998000  1.0
  H  H4  1  0.23440000  0.33864000  0.49995000  1.0
  H  H5  1  0.76561000  0.33863000  0.50011000  1.0
  H  H6  1  0.23442000  0.50001000  0.66136000  1.0
  H  H7  1  0.76563000  0.50001000  0.66137000  1.0
  H  H8  1  0.23440000  0.50005000  0.33865000  1.0
  H  H9  1  0.76561000  0.49988000  0.33864000  1.0
  H  H10  1  0.78591000  0.91574000  0.49998000  1.0
  H  H11  1  0.21414000  0.91575000  0.50004000  1.0
  H  H12  1  0.78588000  0.08424000  0.50016000  1.0
  H  H13  1  0.21410000  0.08425000  0.49990000  1.0
  H  H14  1  0.78590000  0.50002000  0.91576000  1.0
  H  H15  1  0.21413000  0.49995000  0.91576000  1.0
  H  H16  1  0.78588000  0.49982000  0.08425000  1.0
  H  H17  1  0.21411000  0.50010000  0.08426000  1.0
  C  C18  1  0.35163000  0.70253000  0.49999000  1.0
  C  C19  1  0.34684000  0.80237000  0.50000000  1.0
  C  C20  1  0.50002000  0.85492000  0.50000000  1.0
  C  C21  1  0.65320000  0.80237000  0.49999000  1.0
  C  C22  1  0.64840000  0.70252000  0.49999000  1.0
  C  C23  1  0.50001000  0.95595000  0.50001000  1.0
  C  C24  1  0.50000000  0.04403000  0.50001000  1.0
  C  C25  1  0.50000000  0.14508000  0.50002000  1.0
  C  C26  1  0.34681000  0.19762000  0.49997000  1.0
  C  C27  1  0.35162000  0.29747000  0.49998000  1.0
  C  C28  1  0.64839000  0.29747000  0.50007000  1.0
  C  C29  1  0.65318000  0.19761000  0.50008000  1.0
  C  C30  1  0.35164000  0.50001000  0.70253000  1.0
  C  C31  1  0.34684000  0.50000000  0.80238000  1.0
  C  C32  1  0.50002000  0.50000000  0.85492000  1.0
  C  C33  1  0.65320000  0.50001000  0.80239000  1.0
  C  C34  1  0.64841000  0.50001000  0.70253000  1.0
  C  C35  1  0.50001000  0.49999000  0.95596000  1.0
  C  C36  1  0.49999000  0.49999000  0.04404000  1.0
  C  C37  1  0.50000000  0.49998000  0.14509000  1.0
  C  C38  1  0.34682000  0.50003000  0.19763000  1.0
  C  C39  1  0.35162000  0.50002000  0.29748000  1.0
  C  C40  1  0.64838000  0.49993000  0.29748000  1.0
  C  C41  1  0.65318000  0.49992000  0.19762000  1.0
  N  N42  1  0.50002000  0.65517000  0.49999000  1.0
  N  N43  1  0.50001000  0.34482000  0.50002000  1.0
  N  N44  1  0.50002000  0.50001000  0.65518000  1.0
  N  N45  1  0.50000000  0.49998000  0.34483000  1.0
  O  O46  1  0.80613000  0.84674000  0.49999000  1.0
  O  O47  1  0.19391000  0.84675000  0.50001000  1.0
  O  O48  1  0.80610000  0.15324000  0.50012000  1.0
  O  O49  1  0.19389000  0.15325000  0.49991000  1.0
  O  O50  1  0.80612000  0.50000000  0.84676000  1.0
  O  O51  1  0.19391000  0.49999000  0.84676000  1.0
  O  O52  1  0.80610000  0.49986000  0.15325000  1.0
  O  O53  1  0.19389000  0.50008000  0.15326000  1.0
  F  F54  1  0.22641000  0.49999000  0.50001000  1.0
  F  F55  1  0.77362000  0.50000000  0.50000000  1.0
  F  F56  1  0.00003000  0.58583000  0.41417000  1.0
  F  F57  1  0.00000000  0.41416000  0.58583000  1.0
  F  F58  1  0.00002000  0.58583000  0.58584000  1.0
  F  F59  1  0.00002000  0.41417000  0.41417000  1.0
