# generated using pymatgen
data_CuH10C14N2O3
_symmetry_space_group_name_H-M   'P 1'
_cell_length_a   6.39300000
_cell_length_b   9.90782000
_cell_length_c   18.56700000
_cell_angle_alpha   90.00000000
_cell_angle_beta   90.00000000
_cell_angle_gamma   95.86670000
_symmetry_Int_Tables_number   1
_chemical_formula_structural   CuH10C14N2O3
_chemical_formula_sum   'Cu4 H40 C56 N8 O12'
_cell_volume   1169.88697992
_cell_formula_units_Z   4
loop_
 _symmetry_equiv_pos_site_id
 _symmetry_equiv_pos_as_xyz
  1  'x, y, z'
loop_
 _atom_site_type_symbol
 _atom_site_label
 _atom_site_symmetry_multiplicity
 _atom_site_fract_x
 _atom_site_fract_y
 _atom_site_fract_z
 _atom_site_occupancy
  Cu  Cu0  1  0.80343000  0.51450000  0.54691000  1.0
  Cu  Cu1  1  0.69656000  0.98548000  0.04692000  1.0
  Cu  Cu2  1  0.19656000  0.48550000  0.45308000  1.0
  Cu  Cu3  1  0.30344000  0.01449000  0.95309000  1.0
  H  H4  1  0.25164000  0.75132000  0.39128000  1.0
  H  H5  1  0.24835000  0.74867000  0.89127000  1.0
  H  H6  1  0.74832000  0.24868000  0.60872000  1.0
  H  H7  1  0.75167000  0.25131000  0.10872000  1.0
  H  H8  1  0.22024000  0.97816000  0.34100000  1.0
  H  H9  1  0.27977000  0.52183000  0.84100000  1.0
  H  H10  1  0.77973000  0.02184000  0.65900000  1.0
  H  H11  1  0.72028000  0.47815000  0.15900000  1.0
  H  H12  1  0.90781000  0.10030000  0.36841000  1.0
  H  H13  1  0.59221000  0.39969000  0.86841000  1.0
  H  H14  1  0.09219000  0.89971000  0.63160000  1.0
  H  H15  1  0.40783000  0.60029000  0.13160000  1.0
  H  H16  1  0.62285000  0.98685000  0.44618000  1.0
  H  H17  1  0.87714000  0.51316000  0.94618000  1.0
  H  H18  1  0.37714000  0.01319000  0.55382000  1.0
  H  H19  1  0.12286000  0.48683000  0.05383000  1.0
  H  H20  1  0.47132000  0.81421000  0.51447000  1.0
  H  H21  1  0.02868000  0.68579000  0.01447000  1.0
  H  H22  1  0.52866000  0.18580000  0.48554000  1.0
  H  H23  1  0.97135000  0.31420000  0.98553000  1.0
  H  H24  1  0.46686000  0.28050000  0.71383000  1.0
  H  H25  1  0.03313000  0.21949000  0.21383000  1.0
  H  H26  1  0.53315000  0.71951000  0.28616000  1.0
  H  H27  1  0.96686000  0.78051000  0.78616000  1.0
  H  H28  1  0.20585000  0.19691000  0.80705000  1.0
  H  H29  1  0.29414000  0.30309000  0.30705000  1.0
  H  H30  1  0.79417000  0.80310000  0.19295000  1.0
  H  H31  1  0.70585000  0.69692000  0.69294000  1.0
  H  H32  1  0.88007000  0.31176000  0.82301000  1.0
  H  H33  1  0.61992000  0.18824000  0.32302000  1.0
  H  H34  1  0.11994000  0.68824000  0.17698000  1.0
  H  H35  1  0.38008000  0.81178000  0.67698000  1.0
  H  H36  1  0.82000000  0.51266000  0.74879000  1.0
  H  H37  1  0.67999000  0.98734000  0.24880000  1.0
  H  H38  1  0.18000000  0.48734000  0.25120000  1.0
  H  H39  1  0.32000000  0.01267000  0.75121000  1.0
  H  H40  1  0.19400000  0.63796000  0.61520000  1.0
  H  H41  1  0.30601000  0.86204000  0.11521000  1.0
  H  H42  1  0.80600000  0.36204000  0.38479000  1.0
  H  H43  1  0.69400000  0.13795000  0.88480000  1.0
  C  C44  1  0.95999000  0.73915000  0.44962000  1.0
  C  C45  1  0.54001000  0.76086000  0.94962000  1.0
  C  C46  1  0.03999000  0.26088000  0.55038000  1.0
  C  C47  1  0.46000000  0.23912000  0.05038000  1.0
  C  C48  1  0.11625000  0.80435000  0.40476000  1.0
  C  C49  1  0.38375000  0.69565000  0.90476000  1.0
  C  C50  1  0.88373000  0.19566000  0.59523000  1.0
  C  C51  1  0.61628000  0.30433000  0.09523000  1.0
  C  C52  1  0.09641000  0.93170000  0.37602000  1.0
  C  C53  1  0.40360000  0.56829000  0.87602000  1.0
  C  C54  1  0.90357000  0.06831000  0.62398000  1.0
  C  C55  1  0.59645000  0.43169000  0.12398000  1.0
  C  C56  1  0.92005000  0.99998000  0.39099000  1.0
  C  C57  1  0.57996000  0.50002000  0.89099000  1.0
  C  C58  1  0.07995000  0.00004000  0.60901000  1.0
  C  C59  1  0.42008000  0.49996000  0.10902000  1.0
  C  C60  1  0.76378000  0.93723000  0.43452000  1.0
  C  C61  1  0.73622000  0.56277000  0.93452000  1.0
  C  C62  1  0.23619000  0.06278000  0.56548000  1.0
  C  C63  1  0.26381000  0.43723000  0.06549000  1.0
  C  C64  1  0.77838000  0.80769000  0.46532000  1.0
  C  C65  1  0.72160000  0.69231000  0.96532000  1.0
  C  C66  1  0.22158000  0.19232000  0.53469000  1.0
  C  C67  1  0.27839000  0.30768000  0.03469000  1.0
  C  C68  1  0.60710000  0.75541000  0.51033000  1.0
  C  C69  1  0.89288000  0.74459000  0.01034000  1.0
  C  C70  1  0.39285000  0.24461000  0.48967000  1.0
  C  C71  1  0.10712000  0.25540000  0.98967000  1.0
  C  C72  1  0.45249000  0.49097000  0.62571000  1.0
  C  C73  1  0.04749000  0.00903000  0.12572000  1.0
  C  C74  1  0.54749000  0.50904000  0.37427000  1.0
  C  C75  1  0.95249000  0.99097000  0.87428000  1.0
  C  C76  1  0.29272000  0.44303000  0.67890000  1.0
  C  C77  1  0.20730000  0.05697000  0.17892000  1.0
  C  C78  1  0.70730000  0.55698000  0.32108000  1.0
  C  C79  1  0.79271000  0.94304000  0.82109000  1.0
  C  C80  1  0.32392000  0.32981000  0.72186000  1.0
  C  C81  1  0.17607000  0.17018000  0.22187000  1.0
  C  C82  1  0.67609000  0.67020000  0.27813000  1.0
  C  C83  1  0.82393000  0.82981000  0.77814000  1.0
  C  C84  1  0.17708000  0.28272000  0.77333000  1.0
  C  C85  1  0.32290000  0.21729000  0.27333000  1.0
  C  C86  1  0.82293000  0.71730000  0.22667000  1.0
  C  C87  1  0.67707000  0.78272000  0.72667000  1.0
  C  C88  1  0.99555000  0.34879000  0.78266000  1.0
  C  C89  1  0.50443000  0.15120000  0.28266000  1.0
  C  C90  1  0.00446000  0.65120000  0.21734000  1.0
  C  C91  1  0.49556000  0.84881000  0.71734000  1.0
  C  C92  1  0.96104000  0.46129000  0.74127000  1.0
  C  C93  1  0.53898000  0.03871000  0.24128000  1.0
  C  C94  1  0.03899000  0.53871000  0.25873000  1.0
  C  C95  1  0.46103000  0.96130000  0.75873000  1.0
  C  C96  1  0.10809000  0.50910000  0.68891000  1.0
  C  C97  1  0.39192000  0.99089000  0.18892000  1.0
  C  C98  1  0.89193000  0.49089000  0.31108000  1.0
  C  C99  1  0.60809000  0.00910000  0.81108000  1.0
  N  N100  1  0.59984000  0.64330000  0.54726000  1.0
  N  N101  1  0.90012000  0.85671000  0.04726000  1.0
  N  N102  1  0.40009000  0.35673000  0.45274000  1.0
  N  N103  1  0.09986000  0.14329000  0.95274000  1.0
  N  N104  1  0.42746000  0.60469000  0.58919000  1.0
  N  N105  1  0.07258000  0.89529000  0.08919000  1.0
  N  N106  1  0.57258000  0.39531000  0.41081000  1.0
  N  N107  1  0.92747000  0.10468000  0.91081000  1.0
  O  O108  1  0.98375000  0.61413000  0.47549000  1.0
  O  O109  1  0.51624000  0.88586000  0.97549000  1.0
  O  O110  1  0.01624000  0.38589000  0.52450000  1.0
  O  O111  1  0.48375000  0.11410000  0.02451000  1.0
  O  O112  1  0.61463000  0.42374000  0.61679000  1.0
  O  O113  1  0.88535000  0.07626000  0.11680000  1.0
  O  O114  1  0.38534000  0.57627000  0.38320000  1.0
  O  O115  1  0.11465000  0.92374000  0.88321000  1.0
  O  O116  1  0.06621000  0.61682000  0.64772000  1.0
  O  O117  1  0.43379000  0.88318000  0.14773000  1.0
  O  O118  1  0.93378000  0.38318000  0.35227000  1.0
  O  O119  1  0.56620000  0.11682000  0.85228000  1.0
