# generated using pymatgen
data_AgH5C7N4
_symmetry_space_group_name_H-M   'P 1'
_cell_length_a   4.77246000
_cell_length_b   12.22110000
_cell_length_c   14.29850000
_cell_angle_alpha   113.04200000
_cell_angle_beta   89.99500000
_cell_angle_gamma   89.99480000
_symmetry_Int_Tables_number   1
_chemical_formula_structural   AgH5C7N4
_chemical_formula_sum   'Ag4 H20 C28 N16'
_cell_volume   767.42135549
_cell_formula_units_Z   4
loop_
 _symmetry_equiv_pos_site_id
 _symmetry_equiv_pos_as_xyz
  1  'x, y, z'
loop_
 _atom_site_type_symbol
 _atom_site_label
 _atom_site_symmetry_multiplicity
 _atom_site_fract_x
 _atom_site_fract_y
 _atom_site_fract_z
 _atom_site_occupancy
  Ag  Ag0  1  0.09002000  0.83254000  0.43785000  1.0
  Ag  Ag1  1  0.58997000  0.66745000  0.56211000  1.0
  Ag  Ag2  1  0.90995000  0.16746000  0.56214000  1.0
  Ag  Ag3  1  0.41003000  0.33256000  0.43789000  1.0
  H  H4  1  0.19171000  0.22354000  0.25524000  1.0
  H  H5  1  0.69161000  0.27646000  0.74480000  1.0
  H  H6  1  0.80835000  0.77648000  0.74476000  1.0
  H  H7  1  0.30835000  0.72354000  0.25520000  1.0
  H  H8  1  0.99814000  0.05122000  0.11196000  1.0
  H  H9  1  0.49801000  0.44876000  0.88809000  1.0
  H  H10  1  0.00194000  0.94878000  0.88804000  1.0
  H  H11  1  0.50199000  0.55124000  0.11191000  1.0
  H  H12  1  0.59572000  0.07783000  0.01178000  1.0
  H  H13  1  0.09561000  0.42217000  0.98830000  1.0
  H  H14  1  0.40434000  0.92215000  0.98822000  1.0
  H  H15  1  0.90441000  0.57785000  0.01171000  1.0
  H  H16  1  0.37824000  0.27667000  0.05982000  1.0
  H  H17  1  0.87810000  0.22333000  0.94024000  1.0
  H  H18  1  0.62179000  0.72330000  0.94018000  1.0
  H  H19  1  0.12188000  0.77669000  0.05977000  1.0
  H  H20  1  0.57406000  0.45075000  0.20365000  1.0
  H  H21  1  0.07396000  0.04927000  0.79636000  1.0
  H  H22  1  0.42595000  0.54924000  0.79633000  1.0
  H  H23  1  0.92600000  0.95074000  0.20365000  1.0
  C  C24  1  0.01481000  0.45605000  0.31672000  1.0
  C  C25  1  0.51475000  0.04396000  0.68329000  1.0
  C  C26  1  0.98520000  0.54396000  0.68327000  1.0
  C  C27  1  0.48523000  0.95605000  0.31672000  1.0
  C  C28  1  0.89475000  0.34902000  0.23891000  1.0
  C  C29  1  0.39467000  0.15098000  0.76111000  1.0
  C  C30  1  0.10528000  0.65097000  0.76108000  1.0
  C  C31  1  0.60529000  0.84902000  0.23889000  1.0
  C  C32  1  0.01088000  0.23559000  0.21372000  1.0
  C  C33  1  0.51078000  0.26441000  0.78632000  1.0
  C  C34  1  0.98916000  0.76441000  0.78629000  1.0
  C  C35  1  0.48918000  0.73559000  0.21367000  1.0
  C  C36  1  0.90246000  0.13848000  0.13262000  1.0
  C  C37  1  0.40233000  0.36150000  0.86744000  1.0
  C  C38  1  0.09760000  0.86151000  0.86738000  1.0
  C  C39  1  0.59765000  0.63850000  0.13256000  1.0
  C  C40  1  0.67677000  0.15305000  0.07670000  1.0
  C  C41  1  0.17665000  0.34695000  0.92337000  1.0
  C  C42  1  0.32328000  0.84694000  0.92331000  1.0
  C  C43  1  0.82333000  0.65306000  0.07663000  1.0
  C  C44  1  0.55585000  0.26530000  0.10283000  1.0
  C  C45  1  0.05573000  0.23471000  0.89723000  1.0
  C  C46  1  0.44418000  0.73468000  0.89717000  1.0
  C  C47  1  0.94423000  0.76531000  0.10278000  1.0
  C  C48  1  0.66402000  0.36255000  0.18310000  1.0
  C  C49  1  0.16392000  0.13746000  0.81693000  1.0
  C  C50  1  0.33600000  0.63744000  0.81689000  1.0
  C  C51  1  0.83603000  0.86255000  0.18308000  1.0
  N  N52  1  0.95132000  0.56600000  0.32223000  1.0
  N  N53  1  0.45125000  0.93399000  0.67776000  1.0
  N  N54  1  0.04868000  0.43400000  0.67776000  1.0
  N  N55  1  0.54872000  0.06601000  0.32224000  1.0
  N  N56  1  0.10536000  0.63965000  0.39867000  1.0
  N  N57  1  0.60532000  0.86034000  0.60130000  1.0
  N  N58  1  0.89463000  0.36035000  0.60132000  1.0
  N  N59  1  0.39464000  0.13966000  0.39870000  1.0
  N  N60  1  0.25866000  0.57918000  0.43951000  1.0
  N  N61  1  0.75865000  0.92081000  0.56047000  1.0
  N  N62  1  0.74133000  0.42081000  0.56049000  1.0
  N  N63  1  0.24132000  0.07920000  0.43953000  1.0
  N  N64  1  0.20498000  0.46282000  0.38910000  1.0
  N  N65  1  0.70496000  0.03717000  0.61090000  1.0
  N  N66  1  0.79502000  0.53718000  0.61089000  1.0
  N  N67  1  0.29502000  0.96283000  0.38911000  1.0
