# generated using pymatgen
data_Zn4H6C22O17
_symmetry_space_group_name_H-M   'P 1'
_cell_length_a   15.99460000
_cell_length_b   15.99540000
_cell_length_c   21.37043043
_cell_angle_alpha   68.07614641
_cell_angle_beta   68.08451021
_cell_angle_gamma   90.04770000
_symmetry_Int_Tables_number   1
_chemical_formula_structural   Zn4H6C22O17
_chemical_formula_sum   'Zn8 H12 C44 O34'
_cell_volume   4642.64059759
_cell_formula_units_Z   2
loop_
 _symmetry_equiv_pos_site_id
 _symmetry_equiv_pos_as_xyz
  1  'x, y, z'
loop_
 _atom_site_type_symbol
 _atom_site_label
 _atom_site_symmetry_multiplicity
 _atom_site_fract_x
 _atom_site_fract_y
 _atom_site_fract_z
 _atom_site_occupancy
  Zn  Zn0  1  0.11824000  0.71827000  0.56373000  1.0
  Zn  Zn1  1  0.71814000  0.31792000  0.56378000  1.0
  Zn  Zn2  1  0.31791000  0.71811000  0.56380000  1.0
  Zn  Zn3  1  0.68209000  0.28189000  0.43620000  1.0
  Zn  Zn4  1  0.28186000  0.68208000  0.43622000  1.0
  Zn  Zn5  1  0.88176000  0.28172000  0.43627000  1.0
  Zn  Zn6  1  0.28170000  0.88176000  0.43626000  1.0
  Zn  Zn7  1  0.71830000  0.11824000  0.56374000  1.0
  H  H8  1  0.90171000  0.59874000  0.04928000  1.0
  H  H9  1  0.89365000  0.31808000  0.01486000  1.0
  H  H10  1  0.31801000  0.89379000  0.01483000  1.0
  H  H11  1  0.68199000  0.10621000  0.98517000  1.0
  H  H12  1  0.10636000  0.68191000  0.98514000  1.0
  H  H13  1  0.19376000  0.49585000  0.01437000  1.0
  H  H14  1  0.80625000  0.50416000  0.98562000  1.0
  H  H15  1  0.50414000  0.80625000  0.98561000  1.0
  H  H16  1  0.09829000  0.40126000  0.95072000  1.0
  H  H17  1  0.49586000  0.19375000  0.01439000  1.0
  H  H18  1  0.40132000  0.09839000  0.95074000  1.0
  H  H19  1  0.59868000  0.90161000  0.04926000  1.0
  C  C20  1  0.35017000  0.84975000  0.29989000  1.0
  C  C21  1  0.96338000  0.46106000  0.07583000  1.0
  C  C22  1  0.46108000  0.96336000  0.07584000  1.0
  C  C23  1  0.53892000  0.03664000  0.92416000  1.0
  C  C24  1  0.03662000  0.53894000  0.92417000  1.0
  C  C25  1  0.07595000  0.57797000  0.84638000  1.0
  C  C26  1  0.92406000  0.42204000  0.15361000  1.0
  C  C27  1  0.42210000  0.92397000  0.15361000  1.0
  C  C28  1  0.64983000  0.15025000  0.70011000  1.0
  C  C29  1  0.57790000  0.07603000  0.84639000  1.0
  C  C30  1  0.47320000  0.97313000  0.50001000  1.0
  C  C31  1  0.52680000  0.02688000  0.49999000  1.0
  C  C32  1  0.02687000  0.52680000  0.49999000  1.0
  C  C33  1  0.97312000  0.47320000  0.50001000  1.0
  C  C34  1  0.15027000  0.64993000  0.70011000  1.0
  C  C35  1  0.47317000  0.52680000  0.50002000  1.0
  C  C36  1  0.52683000  0.47320000  0.49998000  1.0
  C  C37  1  0.09091000  0.59078000  0.50002000  1.0
  C  C38  1  0.90909000  0.40922000  0.49998000  1.0
  C  C39  1  0.40921000  0.90909000  0.49998000  1.0
  C  C40  1  0.84973000  0.35008000  0.29988000  1.0
  C  C41  1  0.59079000  0.09091000  0.50002000  1.0
  C  C42  1  0.40913000  0.59079000  0.50003000  1.0
  C  C43  1  0.59087000  0.40921000  0.49998000  1.0
  C  C44  1  0.09079000  0.90917000  0.49996000  1.0
  C  C45  1  0.90922000  0.09083000  0.50004000  1.0
  C  C46  1  0.02681000  0.97317000  0.49999000  1.0
  C  C47  1  0.97320000  0.02683000  0.50001000  1.0
  C  C48  1  0.94547000  0.55584000  0.02645000  1.0
  C  C49  1  0.05453000  0.44416000  0.97355000  1.0
  C  C50  1  0.44419000  0.05458000  0.97357000  1.0
  C  C51  1  0.55581000  0.94542000  0.02643000  1.0
  C  C52  1  0.05025000  0.58301000  0.97565000  1.0
  C  C53  1  0.94975000  0.41699000  0.02435000  1.0
  C  C54  1  0.41694000  0.94982000  0.02436000  1.0
  C  C55  1  0.58306000  0.05018000  0.97564000  1.0
  C  C56  1  0.11041000  0.61081000  0.77928000  1.0
  C  C57  1  0.88959000  0.38918000  0.22073000  1.0
  C  C58  1  0.38931000  0.88955000  0.22072000  1.0
  C  C59  1  0.61069000  0.11045000  0.77928000  1.0
  C  C60  1  0.93139000  0.51176000  0.97586000  1.0
  C  C61  1  0.06861000  0.48824000  0.02414000  1.0
  C  C62  1  0.48834000  0.06861000  0.02414000  1.0
  C  C63  1  0.51166000  0.93139000  0.97586000  1.0
  O  O64  1  0.24997000  0.75002000  0.50000000  1.0
  O  O65  1  0.66540000  0.09452000  0.66861000  1.0
  O  O66  1  0.09457000  0.66551000  0.66858000  1.0
  O  O67  1  0.90543000  0.33450000  0.33141000  1.0
  O  O68  1  0.17364000  0.60183000  0.45550000  1.0
  O  O69  1  0.82636000  0.39817000  0.54450000  1.0
  O  O70  1  0.39818000  0.82635000  0.54447000  1.0
  O  O71  1  0.60182000  0.17366000  0.45553000  1.0
  O  O72  1  0.75003000  0.24998000  0.50000000  1.0
  O  O73  1  0.37110000  0.60203000  0.45531000  1.0
  O  O74  1  0.62890000  0.39796000  0.54470000  1.0
  O  O75  1  0.39787000  0.62881000  0.54475000  1.0
  O  O76  1  0.60213000  0.37119000  0.45525000  1.0
  O  O77  1  0.17354000  0.94262000  0.45549000  1.0
  O  O78  1  0.82646000  0.05738000  0.54451000  1.0
  O  O79  1  0.05733000  0.82641000  0.54442000  1.0
  O  O80  1  0.94267000  0.17360000  0.45557000  1.0
  O  O81  1  0.05747000  0.62899000  0.54458000  1.0
  O  O82  1  0.94253000  0.37101000  0.45542000  1.0
  O  O83  1  0.37093000  0.94251000  0.45546000  1.0
  O  O84  1  0.62907000  0.05749000  0.54454000  1.0
  O  O85  1  0.33483000  0.76249000  0.33116000  1.0
  O  O86  1  0.66517000  0.23751000  0.66884000  1.0
  O  O87  1  0.23754000  0.66524000  0.66888000  1.0
  O  O88  1  0.76246000  0.33476000  0.33112000  1.0
  O  O89  1  0.33460000  0.90548000  0.33139000  1.0
  O  O90  1  0.10458000  0.66696000  0.94534000  1.0
  O  O91  1  0.89542000  0.33304000  0.05466000  1.0
  O  O92  1  0.33294000  0.89557000  0.05464000  1.0
  O  O93  1  0.66706000  0.10443000  0.94536000  1.0
  O  O94  1  0.13288000  0.47576000  0.05412000  1.0
  O  O95  1  0.86712000  0.52425000  0.94587000  1.0
  O  O96  1  0.52406000  0.86714000  0.94587000  1.0
  O  O97  1  0.47594000  0.13286000  0.05413000  1.0
