# generated using pymatgen
data_BaH3C3O7
_symmetry_space_group_name_H-M   'P 1'
_cell_length_a   5.70870000
_cell_length_b   6.67431000
_cell_length_c   18.19250000
_cell_angle_alpha   90.00030000
_cell_angle_beta   90.00010000
_cell_angle_gamma   98.02290000
_symmetry_Int_Tables_number   1
_chemical_formula_structural   BaH3C3O7
_chemical_formula_sum   'Ba4 H12 C12 O28'
_cell_volume   686.37953140
_cell_formula_units_Z   4
loop_
 _symmetry_equiv_pos_site_id
 _symmetry_equiv_pos_as_xyz
  1  'x, y, z'
loop_
 _atom_site_type_symbol
 _atom_site_label
 _atom_site_symmetry_multiplicity
 _atom_site_fract_x
 _atom_site_fract_y
 _atom_site_fract_z
 _atom_site_occupancy
  Ba  Ba0  1  0.77269000  0.62002000  0.91601000  1.0
  Ba  Ba1  1  0.72731000  0.87999000  0.41601000  1.0
  Ba  Ba2  1  0.22731000  0.37998000  0.08399000  1.0
  Ba  Ba3  1  0.27270000  0.12001000  0.58399000  1.0
  H  H4  1  0.02176000  0.35351000  0.74925000  1.0
  H  H5  1  0.47824000  0.14649000  0.24925000  1.0
  H  H6  1  0.97824000  0.64649000  0.25075000  1.0
  H  H7  1  0.52176000  0.85351000  0.75075000  1.0
  H  H8  1  0.20046000  0.34229000  0.89466000  1.0
  H  H9  1  0.29954000  0.15771000  0.39466000  1.0
  H  H10  1  0.79954000  0.65771000  0.10534000  1.0
  H  H11  1  0.70046000  0.84229000  0.60534000  1.0
  H  H12  1  0.97153000  0.20879000  0.93165000  1.0
  H  H13  1  0.52847000  0.29121000  0.43164000  1.0
  H  H14  1  0.02846000  0.79121000  0.06835000  1.0
  H  H15  1  0.47154000  0.70879000  0.56836000  1.0
  C  C16  1  0.43343000  0.35131000  0.76407000  1.0
  C  C17  1  0.06657000  0.14869000  0.26407000  1.0
  C  C18  1  0.56657000  0.64869000  0.23593000  1.0
  C  C19  1  0.93343000  0.85131000  0.73593000  1.0
  C  C20  1  0.67697000  0.33607000  0.72696000  1.0
  C  C21  1  0.82302000  0.16391000  0.22696000  1.0
  C  C22  1  0.32303000  0.66393000  0.27304000  1.0
  C  C23  1  0.17698000  0.83609000  0.77304000  1.0
  C  C24  1  0.40286000  0.91762000  0.01635000  1.0
  C  C25  1  0.09715000  0.58238000  0.51635000  1.0
  C  C26  1  0.59715000  0.08238000  0.98365000  1.0
  C  C27  1  0.90286000  0.41762000  0.48365000  1.0
  O  O28  1  0.43157000  0.38752000  0.83173000  1.0
  O  O29  1  0.06843000  0.11248000  0.33173000  1.0
  O  O30  1  0.56843000  0.61247000  0.16827000  1.0
  O  O31  1  0.93158000  0.88752000  0.66827000  1.0
  O  O32  1  0.85674000  0.37569000  0.77261000  1.0
  O  O33  1  0.64325000  0.12430000  0.27261000  1.0
  O  O34  1  0.14326000  0.62431000  0.22739000  1.0
  O  O35  1  0.35676000  0.87570000  0.72739000  1.0
  O  O36  1  0.08307000  0.33939000  0.93490000  1.0
  O  O37  1  0.41693000  0.16061000  0.43490000  1.0
  O  O38  1  0.91693000  0.66061000  0.06510000  1.0
  O  O39  1  0.58307000  0.83939000  0.56510000  1.0
  O  O40  1  0.25522000  0.32220000  0.72126000  1.0
  O  O41  1  0.24479000  0.17780000  0.22125000  1.0
  O  O42  1  0.74478000  0.67780000  0.27874000  1.0
  O  O43  1  0.75522000  0.82220000  0.77875000  1.0
  O  O44  1  0.41729000  0.73380000  0.00247000  1.0
  O  O45  1  0.08271000  0.76620000  0.50247000  1.0
  O  O46  1  0.58271000  0.26620000  0.99753000  1.0
  O  O47  1  0.91729000  0.23380000  0.49753000  1.0
  O  O48  1  0.69139000  0.28875000  0.66181000  1.0
  O  O49  1  0.80860000  0.21124000  0.16180000  1.0
  O  O50  1  0.30860000  0.71125000  0.33819000  1.0
  O  O51  1  0.19141000  0.78876000  0.83820000  1.0
  O  O52  1  0.24220000  0.98101000  0.05460000  1.0
  O  O53  1  0.25780000  0.51899000  0.55460000  1.0
  O  O54  1  0.75780000  0.01899000  0.94540000  1.0
  O  O55  1  0.74220000  0.48101000  0.44540000  1.0
