# generated using pymatgen
data_Zn2H23C28N7O8
_symmetry_space_group_name_H-M   'P 1'
_cell_length_a   9.84625000
_cell_length_b   11.19570000
_cell_length_c   14.79310000
_cell_angle_alpha   88.45800000
_cell_angle_beta   76.36930000
_cell_angle_gamma   85.61000000
_symmetry_Int_Tables_number   1
_chemical_formula_structural   Zn2H23C28N7O8
_chemical_formula_sum   'Zn2 H23 C28 N7 O8'
_cell_volume   1580.08169988
_cell_formula_units_Z   1
loop_
 _symmetry_equiv_pos_site_id
 _symmetry_equiv_pos_as_xyz
  1  'x, y, z'
loop_
 _atom_site_type_symbol
 _atom_site_label
 _atom_site_symmetry_multiplicity
 _atom_site_fract_x
 _atom_site_fract_y
 _atom_site_fract_z
 _atom_site_occupancy
  Zn  Zn0  1  0.85031000  0.50694000  0.49340000  1.0
  Zn  Zn1  1  0.12711000  0.49045000  0.51307000  1.0
  H  H2  1  0.99507000  0.48369000  0.98777000  1.0
  H  H3  1  0.83670000  0.16760000  0.42217000  1.0
  H  H4  1  0.66304000  0.68943000  0.58753000  1.0
  H  H5  1  0.48007000  0.71987000  0.62675000  1.0
  H  H6  1  0.35599000  0.46512000  0.36659000  1.0
  H  H7  1  0.51459000  0.50188000  0.38859000  1.0
  H  H8  1  0.67096000  0.54108000  0.77561000  1.0
  H  H9  1  0.08323000  0.45737000  0.81654000  1.0
  H  H10  1  0.80814000  0.54983000  0.11942000  1.0
  H  H11  1  0.03467000  0.69295000  0.03334000  1.0
  H  H12  1  0.93471000  0.64992000  0.20179000  1.0
  H  H13  1  0.16839000  0.87203000  0.52193000  1.0
  H  H14  1  0.34397000  0.53576000  0.23570000  1.0
  H  H15  1  0.48223000  0.61570000  0.82948000  1.0
  H  H16  1  0.47057000  0.67586000  0.22953000  1.0
  H  H17  1  0.63772000  0.64250000  0.23443000  1.0
  H  H18  1  0.61496000  0.42136000  0.48172000  1.0
  H  H19  1  0.31576000  0.55917000  0.62752000  1.0
  H  H20  1  0.23433000  0.67532000  0.89674000  1.0
  H  H21  1  0.85033000  0.90807000  0.53849000  1.0
  H  H22  1  0.20131000  0.18025000  0.55198000  1.0
  H  H23  1  0.22646000  0.04293000  0.60130000  1.0
  H  H24  1  0.88568000  0.01848000  0.43098000  1.0
  C  C25  1  0.99922000  0.26690000  0.48874000  1.0
  C  C26  1  0.78104000  0.53312000  0.97996000  1.0
  C  C27  1  0.68604000  0.55115000  0.92025000  1.0
  C  C28  1  0.07540000  0.54482000  0.32484000  1.0
  C  C29  1  0.92418000  0.49790000  0.94121000  1.0
  C  C30  1  0.97319000  0.48288000  0.84683000  1.0
  C  C31  1  0.73892000  0.53168000  0.82413000  1.0
  C  C32  1  0.07008000  0.92631000  0.52439000  1.0
  C  C33  1  0.95536000  0.86433000  0.52872000  1.0
  C  C34  1  0.08130000  0.05426000  0.52298000  1.0
  C  C35  1  0.98824000  0.13548000  0.49108000  1.0
  C  C36  1  0.34101000  0.60675000  0.09869000  1.0
  C  C37  1  0.54019000  0.56575000  0.55305000  1.0
  C  C38  1  0.39316000  0.53960000  0.56263000  1.0
  C  C39  1  0.96444000  0.73303000  0.52322000  1.0
  C  C40  1  0.93332000  0.48627000  0.68476000  1.0
  C  C41  1  0.13481000  0.58702000  0.22755000  1.0
  C  C42  1  0.87972000  0.49921000  0.78733000  1.0
  C  C43  1  0.10282000  0.66122000  0.07875000  1.0
  C  C44  1  0.04667000  0.63608000  0.17125000  1.0
  C  C45  1  0.27874000  0.57578000  0.19162000  1.0
  C  C46  1  0.24859000  0.64173000  0.03949000  1.0
  C  C47  1  0.49100000  0.59281000  0.05988000  1.0
  C  C48  1  0.54035000  0.58576000  0.96161000  1.0
  C  C49  1  0.44337000  0.61595000  0.90478000  1.0
  C  C50  1  0.30500000  0.64886000  0.94177000  1.0
  C  C51  1  0.59317000  0.58793000  0.11619000  1.0
  C  C52  1  0.73206000  0.55570000  0.07609000  1.0
  N  N53  1  0.64471000  0.49948000  0.50231000  1.0
  N  N54  1  0.34380000  0.49720000  0.49699000  1.0
  N  N55  1  0.20150000  0.08936000  0.54687000  1.0
  N  N56  1  0.87407000  0.10110000  0.46001000  1.0
  N  N57  1  0.56238000  0.66225000  0.59854000  1.0
  N  N58  1  0.41970000  0.46656000  0.41226000  1.0
  N  N59  1  0.55546000  0.61630000  0.21109000  1.0
  O  O60  1  0.90245000  0.33042000  0.46121000  1.0
  O  O61  1  0.10141000  0.31015000  0.51398000  1.0
  O  O62  1  0.94411000  0.56168000  0.35787000  1.0
  O  O63  1  0.16200000  0.49368000  0.36866000  1.0
  O  O64  1  0.84722000  0.68432000  0.53230000  1.0
  O  O65  1  0.08383000  0.67471000  0.50752000  1.0
  O  O66  1  0.84640000  0.47051000  0.63557000  1.0
  O  O67  1  0.06544000  0.49444000  0.65315000  1.0
