# generated using pymatgen
data_Zn3H52C64(N2O9)2
_symmetry_space_group_name_H-M   'P 1'
_cell_length_a   8.99636000
_cell_length_b   12.32420000
_cell_length_c   15.90750000
_cell_angle_alpha   76.97650000
_cell_angle_beta   76.06250000
_cell_angle_gamma   79.05470000
_symmetry_Int_Tables_number   1
_chemical_formula_structural   Zn3H52C64(N2O9)2
_chemical_formula_sum   'Zn3 H52 C64 N4 O18'
_cell_volume   1650.51966117
_cell_formula_units_Z   1
loop_
 _symmetry_equiv_pos_site_id
 _symmetry_equiv_pos_as_xyz
  1  'x, y, z'
loop_
 _atom_site_type_symbol
 _atom_site_label
 _atom_site_symmetry_multiplicity
 _atom_site_fract_x
 _atom_site_fract_y
 _atom_site_fract_z
 _atom_site_occupancy
  Zn  Zn0  1  0.00000000  0.50000000  0.50000000  1.0
  Zn  Zn1  1  0.65767000  0.64516000  0.56171000  1.0
  Zn  Zn2  1  0.34233000  0.35484000  0.43829000  1.0
  H  H3  1  0.26556000  0.02636000  0.85546000  1.0
  H  H4  1  0.73444000  0.97364000  0.14455000  1.0
  H  H5  1  0.37921000  0.04338000  0.92824000  1.0
  H  H6  1  0.62078000  0.95662000  0.07176000  1.0
  H  H7  1  0.89141000  0.89837000  0.83421000  1.0
  H  H8  1  0.10859000  0.10163000  0.16579000  1.0
  H  H9  1  0.27007000  0.92165000  0.05669000  1.0
  H  H10  1  0.72992000  0.07835000  0.94331000  1.0
  H  H11  1  0.12562000  0.92746000  0.99463000  1.0
  H  H12  1  0.87437000  0.07254000  0.00537000  1.0
  H  H13  1  0.96480000  0.55387000  0.30396000  1.0
  H  H14  1  0.03520000  0.44613000  0.69605000  1.0
  H  H15  1  0.77022000  0.81486000  0.74265000  1.0
  H  H16  1  0.22978000  0.18514000  0.25735000  1.0
  H  H17  1  0.41830000  0.37941000  0.73271000  1.0
  H  H18  1  0.58170000  0.62059000  0.26729000  1.0
  H  H19  1  0.32998000  0.20138000  0.81907000  1.0
  H  H20  1  0.67002000  0.79862000  0.18093000  1.0
  H  H21  1  0.50209000  0.72845000  0.99729000  1.0
  H  H22  1  0.49791000  0.27155000  0.00271000  1.0
  H  H23  1  0.54863000  0.86199000  0.99719000  1.0
  H  H24  1  0.45137000  0.13801000  0.00281000  1.0
  H  H25  1  0.60774000  0.80494000  0.89925000  1.0
  H  H26  1  0.39226000  0.19507000  0.10075000  1.0
  H  H27  1  0.40597000  0.80450000  0.81007000  1.0
  H  H28  1  0.59403000  0.19550000  0.18993000  1.0
  H  H29  1  0.32292000  0.71158000  0.90713000  1.0
  H  H30  1  0.67708000  0.28842000  0.09287000  1.0
  H  H31  1  0.31503000  0.67210000  0.77127000  1.0
  H  H32  1  0.68497000  0.32790000  0.22872000  1.0
  H  H33  1  0.76332000  0.01711000  0.70593000  1.0
  H  H34  1  0.23668000  0.98289000  0.29407000  1.0
  H  H35  1  0.85334000  0.19852000  0.62512000  1.0
  H  H36  1  0.14666000  0.80148000  0.37488000  1.0
  H  H37  1  0.32736000  0.02260000  0.61134000  1.0
  H  H38  1  0.67265000  0.97740000  0.38866000  1.0
  H  H39  1  0.05784000  0.79140000  0.52722000  1.0
  H  H40  1  0.94216000  0.20860000  0.47278000  1.0
  H  H41  1  0.31229000  0.73516000  0.50928000  1.0
  H  H42  1  0.68771000  0.26484000  0.49072000  1.0
  H  H43  1  0.03578000  0.94033000  0.13841000  1.0
  H  H44  1  0.96422000  0.05967000  0.86159000  1.0
  H  H45  1  0.86205000  0.91226000  0.28407000  1.0
  H  H46  1  0.13795000  0.08774000  0.71593000  1.0
  H  H47  1  0.57584000  0.85839000  0.64374000  1.0
  H  H48  1  0.42416000  0.14160000  0.35626000  1.0
  H  H49  1  0.19444000  0.59386000  0.67867000  1.0
  H  H50  1  0.80556000  0.40614000  0.32133000  1.0
  H  H51  1  0.18501000  0.11498000  0.51851000  1.0
  H  H52  1  0.81500000  0.88502000  0.48149000  1.0
  H  H53  1  0.13966000  0.58001000  0.15487000  1.0
  H  H54  1  0.86034000  0.41999000  0.84513000  1.0
  C  C55  1  0.36109000  0.86952000  0.93084000  1.0
  C  C56  1  0.63890000  0.13048000  0.06916000  1.0
  C  C57  1  0.37056000  0.99121000  0.88198000  1.0
  C  C58  1  0.62944000  0.00879000  0.11802000  1.0
  C  C59  1  0.10147000  0.76096000  0.13775000  1.0
  C  C60  1  0.89853000  0.23904000  0.86225000  1.0
  C  C61  1  0.95626000  0.83084000  0.80042000  1.0
  C  C62  1  0.04374000  0.16916000  0.19958000  1.0
  C  C63  1  0.23289000  0.87849000  0.01314000  1.0
  C  C64  1  0.76711000  0.12151000  0.98686000  1.0
  C  C65  1  0.98101000  0.63788000  0.26679000  1.0
  C  C66  1  0.01899000  0.36212000  0.73321000  1.0
  C  C67  1  0.11057000  0.79161000  0.80818000  1.0
  C  C68  1  0.88943000  0.20839000  0.19182000  1.0
  C  C69  1  0.97486000  0.69910000  0.70448000  1.0
  C  C70  1  0.02514000  0.30090000  0.29552000  1.0
  C  C71  1  0.88941000  0.78439000  0.74947000  1.0
  C  C72  1  0.11060000  0.21561000  0.25053000  1.0
  C  C73  1  0.49460000  0.29994000  0.72824000  1.0
  C  C74  1  0.50540000  0.70006000  0.27175000  1.0
  C  C75  1  0.44503000  0.19943000  0.77693000  1.0
  C  C76  1  0.55497000  0.80057000  0.22307000  1.0
  C  C77  1  0.54226000  0.09729000  0.76825000  1.0
  C  C78  1  0.45774000  0.90271000  0.23175000  1.0
  C  C79  1  0.79972000  0.72076000  0.39279000  1.0
  C  C80  1  0.20028000  0.27924000  0.60721000  1.0
  C  C81  1  0.51441000  0.81257000  0.95730000  1.0
  C  C82  1  0.48559000  0.18743000  0.04270000  1.0
  C  C83  1  0.32106000  0.80000000  0.87309000  1.0
  C  C84  1  0.67894000  0.20000000  0.12691000  1.0
  C  C85  1  0.69646000  0.40742000  0.62037000  1.0
  C  C86  1  0.30354000  0.59258000  0.37963000  1.0
  C  C87  1  0.19562000  0.70387000  0.76612000  1.0
  C  C88  1  0.80438000  0.29612000  0.23388000  1.0
  C  C89  1  0.68881000  0.09687000  0.71212000  1.0
  C  C90  1  0.31119000  0.90313000  0.28788000  1.0
  C  C91  1  0.73808000  0.19781000  0.66653000  1.0
  C  C92  1  0.26192000  0.80219000  0.33347000  1.0
  C  C93  1  0.64158000  0.30066000  0.67295000  1.0
  C  C94  1  0.35842000  0.69934000  0.32704000  1.0
  C  C95  1  0.35946000  0.93786000  0.59751000  1.0
  C  C96  1  0.64054000  0.06214000  0.40250000  1.0
  C  C97  1  0.03315000  0.88279000  0.51510000  1.0
  C  C98  1  0.96685000  0.11721000  0.48491000  1.0
  C  C99  1  0.13671000  0.94710000  0.52620000  1.0
  C  C100  1  0.86329000  0.05289000  0.47380000  1.0
  C  C101  1  0.34971000  0.78838000  0.54347000  1.0
  C  C102  1  0.65029000  0.21162000  0.45653000  1.0
  C  C103  1  0.90850000  0.65660000  0.64297000  1.0
  C  C104  1  0.09150000  0.34340000  0.35703000  1.0
  C  C105  1  0.02157000  0.85514000  0.17339000  1.0
  C  C106  1  0.97844000  0.14486000  0.82661000  1.0
  C  C107  1  0.92330000  0.83932000  0.25592000  1.0
  C  C108  1  0.07670000  0.16069000  0.74408000  1.0
  C  C109  1  0.90323000  0.73127000  0.30419000  1.0
  C  C110  1  0.09678000  0.26873000  0.69581000  1.0
  C  C111  1  0.48191000  0.85686000  0.61260000  1.0
  C  C112  1  0.51809000  0.14314000  0.38741000  1.0
  C  C113  1  0.12756000  0.65941000  0.71402000  1.0
  C  C114  1  0.87245000  0.34059000  0.28598000  1.0
  C  C115  1  0.10380000  0.06442000  0.51092000  1.0
  C  C116  1  0.89620000  0.93558000  0.48908000  1.0
  C  C117  1  0.07846000  0.65216000  0.18416000  1.0
  C  C118  1  0.92154000  0.34784000  0.81584000  1.0
  N  N119  1  0.27582000  0.89339000  0.55375000  1.0
  N  N120  1  0.72418000  0.10661000  0.44625000  1.0
  N  N121  1  0.47455000  0.76438000  0.57852000  1.0
  N  N122  1  0.52546000  0.23562000  0.42148000  1.0
  O  O123  1  0.50491000  0.99359000  0.81218000  1.0
  O  O124  1  0.49508000  0.00641000  0.18782000  1.0
  O  O125  1  0.16855000  0.84447000  0.85726000  1.0
  O  O126  1  0.83145000  0.15553000  0.14274000  1.0
  O  O127  1  0.76522000  0.69054000  0.64168000  1.0
  O  O128  1  0.23479000  0.30946000  0.35832000  1.0
  O  O129  1  0.59687000  0.49737000  0.62109000  1.0
  O  O130  1  0.40313000  0.50263000  0.37891000  1.0
  O  O131  1  0.99969000  0.59268000  0.59442000  1.0
  O  O132  1  0.00032000  0.40732000  0.40558000  1.0
  O  O133  1  0.80895000  0.62375000  0.44832000  1.0
  O  O134  1  0.19105000  0.37625000  0.55168000  1.0
  O  O135  1  0.70561000  0.80360000  0.41419000  1.0
  O  O136  1  0.29440000  0.19640000  0.58581000  1.0
  O  O137  1  0.20445000  0.76806000  0.05868000  1.0
  O  O138  1  0.79555000  0.23194000  0.94132000  1.0
  O  O139  1  0.83588000  0.40165000  0.57817000  1.0
  O  O140  1  0.16412000  0.59834000  0.42183000  1.0
