# generated using pymatgen
data_CdH14C22N3ClO2
_symmetry_space_group_name_H-M   'P 1'
_cell_length_a   13.54110000
_cell_length_b   13.54120000
_cell_length_c   14.70600022
_cell_angle_alpha   108.81278293
_cell_angle_beta   105.35175428
_cell_angle_gamma   111.22600000
_symmetry_Int_Tables_number   1
_chemical_formula_structural   CdH14C22N3ClO2
_chemical_formula_sum   'Cd4 H56 C88 N12 Cl4 O8'
_cell_volume   2145.43332099
_cell_formula_units_Z   4
loop_
 _symmetry_equiv_pos_site_id
 _symmetry_equiv_pos_as_xyz
  1  'x, y, z'
loop_
 _atom_site_type_symbol
 _atom_site_label
 _atom_site_symmetry_multiplicity
 _atom_site_fract_x
 _atom_site_fract_y
 _atom_site_fract_z
 _atom_site_occupancy
  Cd  Cd0  1  0.83047000  0.73575000  0.32422000  1.0
  Cd  Cd1  1  0.41148000  0.00634000  0.17592000  1.0
  Cd  Cd2  1  0.16952000  0.26425000  0.67578000  1.0
  Cd  Cd3  1  0.58852000  0.99366000  0.82408000  1.0
  H  H4  1  0.68861000  0.06540000  0.38391000  1.0
  H  H5  1  0.68160000  0.80501000  0.11630000  1.0
  H  H6  1  0.31139000  0.93460000  0.61609000  1.0
  H  H7  1  0.31839000  0.19499000  0.88370000  1.0
  H  H8  1  0.03841000  0.19615000  0.40242000  1.0
  H  H9  1  0.79364000  0.13619000  0.09760000  1.0
  H  H10  1  0.96159000  0.80385000  0.59758000  1.0
  H  H11  1  0.20636000  0.86382000  0.90240000  1.0
  H  H12  1  0.56100000  0.93841000  0.39351000  1.0
  H  H13  1  0.54472000  0.66748000  0.10621000  1.0
  H  H14  1  0.43900000  0.06159000  0.60649000  1.0
  H  H15  1  0.45528000  0.33252000  0.89379000  1.0
  H  H16  1  0.40943000  0.77360000  0.39938000  1.0
  H  H17  1  0.37412000  0.51005000  0.10040000  1.0
  H  H18  1  0.59057000  0.22640000  0.60062000  1.0
  H  H19  1  0.62588000  0.48995000  0.89960000  1.0
  H  H20  1  0.43028000  0.59155000  0.38278000  1.0
  H  H21  1  0.20870000  0.54744000  0.11708000  1.0
  H  H22  1  0.56972000  0.40844000  0.61722000  1.0
  H  H23  1  0.79131000  0.45256000  0.88293000  1.0
  H  H24  1  0.60695000  0.58610000  0.36055000  1.0
  H  H25  1  0.22553000  0.74645000  0.13962000  1.0
  H  H26  1  0.39306000  0.41391000  0.63946000  1.0
  H  H27  1  0.77448000  0.25355000  0.86038000  1.0
  H  H28  1  0.16425000  0.15411000  0.38803000  1.0
  H  H29  1  0.76588000  0.27634000  0.11201000  1.0
  H  H30  1  0.83575000  0.84589000  0.61197000  1.0
  H  H31  1  0.23411000  0.72365000  0.88798000  1.0
  H  H32  1  0.31282000  0.09030000  0.37093000  1.0
  H  H33  1  0.71929000  0.44204000  0.12917000  1.0
  H  H34  1  0.68718000  0.90970000  0.62907000  1.0
  H  H35  1  0.28070000  0.55796000  0.87083000  1.0
  H  H36  1  0.27181000  0.88659000  0.34588000  1.0
  H  H37  1  0.54068000  0.42620000  0.15418000  1.0
  H  H38  1  0.72819000  0.11341000  0.65412000  1.0
  H  H39  1  0.45932000  0.57380000  0.84582000  1.0
  H  H40  1  0.07725000  0.74928000  0.33540000  1.0
  H  H41  1  0.41371000  0.24210000  0.16460000  1.0
  H  H42  1  0.92275000  0.25072000  0.66460000  1.0
  H  H43  1  0.58629000  0.75790000  0.83540000  1.0
  H  H44  1  0.73542000  0.24674000  0.45578000  1.0
  H  H45  1  0.79097000  0.77966000  0.04420000  1.0
  H  H46  1  0.26457000  0.75326000  0.54422000  1.0
  H  H47  1  0.20903000  0.22034000  0.95580000  1.0
  H  H48  1  0.73700000  0.42893000  0.45258000  1.0
  H  H49  1  0.97652000  0.78465000  0.04765000  1.0
  H  H50  1  0.26301000  0.57108000  0.54743000  1.0
  H  H51  1  0.02348000  0.21536000  0.95235000  1.0
  H  H52  1  0.99166000  0.47291000  0.32578000  1.0
  H  H53  1  0.14698000  0.16597000  0.17411000  1.0
  H  H54  1  0.00834000  0.52709000  0.67422000  1.0
  H  H55  1  0.85302000  0.83403000  0.82589000  1.0
  H  H56  1  0.99548000  0.29333000  0.33176000  1.0
  H  H57  1  0.96141000  0.16371000  0.16815000  1.0
  H  H58  1  0.00452000  0.70667000  0.66824000  1.0
  H  H59  1  0.03857000  0.83628000  0.83184000  1.0
  C  C60  1  0.76356000  0.94788000  0.37675000  1.0
  C  C61  1  0.57106000  0.88693000  0.12324000  1.0
  C  C62  1  0.23644000  0.05212000  0.62325000  1.0
  C  C63  1  0.42895000  0.11308000  0.87677000  1.0
  C  C64  1  0.76472000  0.05423000  0.38509000  1.0
  C  C65  1  0.66910000  0.87979000  0.11491000  1.0
  C  C66  1  0.23528000  0.94577000  0.61491000  1.0
  C  C67  1  0.33091000  0.12021000  0.88509000  1.0
  C  C68  1  0.86317000  0.14513000  0.39134000  1.0
  C  C69  1  0.75364000  0.97194000  0.10850000  1.0
  C  C70  1  0.13682000  0.85487000  0.60866000  1.0
  C  C71  1  0.24636000  0.02806000  0.89150000  1.0
  C  C72  1  0.95801000  0.12521000  0.39125000  1.0
  C  C73  1  0.73377000  0.06685000  0.10862000  1.0
  C  C74  1  0.04199000  0.87479000  0.60875000  1.0
  C  C75  1  0.26622000  0.93314000  0.89137000  1.0
  C  C76  1  0.94886000  0.01478000  0.37776000  1.0
  C  C77  1  0.63680000  0.07116000  0.12211000  1.0
  C  C78  1  0.05114000  0.98522000  0.62224000  1.0
  C  C79  1  0.36320000  0.92884000  0.87789000  1.0
  C  C80  1  0.66483000  0.84917000  0.37396000  1.0
  C  C81  1  0.47517000  0.79099000  0.12606000  1.0
  C  C82  1  0.33517000  0.15083000  0.62604000  1.0
  C  C83  1  0.52483000  0.20901000  0.87394000  1.0
  C  C84  1  0.56904000  0.85910000  0.38571000  1.0
  C  C85  1  0.47327000  0.68337000  0.11414000  1.0
  C  C86  1  0.43096000  0.14090000  0.61429000  1.0
  C  C87  1  0.52674000  0.31663000  0.88586000  1.0
  C  C88  1  0.48316000  0.76594000  0.38826000  1.0
  C  C89  1  0.37759000  0.59492000  0.11159000  1.0
  C  C90  1  0.51684000  0.23406000  0.61174000  1.0
  C  C91  1  0.62242000  0.40508000  0.88841000  1.0
  C  C92  1  0.49470000  0.66542000  0.37941000  1.0
  C  C93  1  0.28595000  0.61530000  0.12052000  1.0
  C  C94  1  0.50530000  0.33457000  0.62059000  1.0
  C  C95  1  0.71406000  0.38470000  0.87948000  1.0
  C  C96  1  0.59185000  0.66142000  0.36681000  1.0
  C  C97  1  0.29459000  0.72511000  0.13328000  1.0
  C  C98  1  0.40815000  0.33857000  0.63319000  1.0
  C  C99  1  0.70541000  0.27489000  0.86672000  1.0
  C  C100  1  0.04212000  0.98414000  0.36907000  1.0
  C  C101  1  0.61477000  0.17309000  0.13080000  1.0
  C  C102  1  0.95788000  0.01586000  0.63093000  1.0
  C  C103  1  0.38524000  0.82692000  0.86920000  1.0
  C  C104  1  0.14698000  0.06468000  0.37544000  1.0
  C  C105  1  0.68900000  0.27162000  0.12450000  1.0
  C  C106  1  0.85302000  0.93532000  0.62456000  1.0
  C  C107  1  0.31100000  0.72837000  0.87549000  1.0
  C  C108  1  0.23032000  0.02978000  0.36641000  1.0
  C  C109  1  0.66319000  0.36402000  0.13358000  1.0
  C  C110  1  0.76968000  0.97022000  0.63359000  1.0
  C  C111  1  0.33682000  0.63598000  0.86642000  1.0
  C  C112  1  0.20724000  0.91535000  0.35157000  1.0
  C  C113  1  0.56358000  0.35582000  0.14839000  1.0
  C  C114  1  0.79276000  0.08466000  0.64843000  1.0
  C  C115  1  0.43641000  0.64418000  0.85160000  1.0
  C  C116  1  0.10092000  0.83969000  0.34596000  1.0
  C  C117  1  0.49349000  0.25510000  0.15396000  1.0
  C  C118  1  0.89907000  0.16031000  0.65404000  1.0
  C  C119  1  0.50651000  0.74490000  0.84604000  1.0
  C  C120  1  0.86590000  0.25613000  0.39428000  1.0
  C  C121  1  0.86165000  0.97163000  0.10542000  1.0
  C  C122  1  0.13410000  0.74387000  0.60572000  1.0
  C  C123  1  0.13835000  0.02837000  0.89458000  1.0
  C  C124  1  0.79356000  0.29628000  0.42857000  1.0
  C  C125  1  0.86760000  0.86504000  0.07125000  1.0
  C  C126  1  0.20644000  0.70372000  0.57143000  1.0
  C  C127  1  0.13240000  0.13496000  0.92875000  1.0
  C  C128  1  0.79341000  0.39820000  0.42642000  1.0
  C  C129  1  0.97172000  0.86709000  0.07351000  1.0
  C  C130  1  0.20659000  0.60180000  0.57358000  1.0
  C  C131  1  0.02828000  0.13291000  0.92649000  1.0
  C  C132  1  0.86445000  0.46222000  0.38909000  1.0
  C  C133  1  0.07302000  0.97543000  0.11076000  1.0
  C  C134  1  0.13554000  0.53778000  0.61091000  1.0
  C  C135  1  0.92699000  0.02457000  0.88924000  1.0
  C  C136  1  0.93704000  0.42304000  0.35520000  1.0
  C  C137  1  0.06769000  0.08189000  0.14457000  1.0
  C  C138  1  0.06296000  0.57696000  0.64480000  1.0
  C  C139  1  0.93231000  0.91812000  0.85543000  1.0
  C  C140  1  0.93843000  0.32222000  0.35861000  1.0
  C  C141  1  0.96342000  0.07983000  0.14111000  1.0
  C  C142  1  0.06157000  0.67778000  0.64139000  1.0
  C  C143  1  0.03658000  0.92018000  0.85889000  1.0
  C  C144  1  0.85933000  0.56756000  0.38024000  1.0
  C  C145  1  0.18714000  0.97895000  0.11969000  1.0
  C  C146  1  0.14066000  0.43244000  0.61976000  1.0
  C  C147  1  0.81286000  0.02106000  0.88031000  1.0
  N  N148  1  0.85315000  0.92940000  0.37098000  1.0
  N  N149  1  0.55822000  0.98219000  0.12888000  1.0
  N  N150  1  0.14685000  0.07060000  0.62902000  1.0
  N  N151  1  0.44178000  0.01781000  0.87112000  1.0
  N  N152  1  0.67434000  0.75075000  0.36380000  1.0
  N  N153  1  0.38693000  0.81065000  0.13635000  1.0
  N  N154  1  0.32566000  0.24925000  0.63620000  1.0
  N  N155  1  0.61307000  0.18935000  0.86365000  1.0
  N  N156  1  0.02068000  0.87333000  0.35422000  1.0
  N  N157  1  0.51881000  0.16653000  0.14566000  1.0
  N  N158  1  0.97932000  0.12667000  0.64578000  1.0
  N  N159  1  0.48119000  0.83347000  0.85434000  1.0
  Cl  Cl160  1  0.71297000  0.63121000  0.12508000  1.0
  Cl  Cl161  1  0.50607000  0.08802000  0.37507000  1.0
  Cl  Cl162  1  0.28703000  0.36879000  0.87492000  1.0
  Cl  Cl163  1  0.49393000  0.91198000  0.62493000  1.0
  O  O164  1  0.91140000  0.60956000  0.32949000  1.0
  O  O165  1  0.28004000  0.08166000  0.17083000  1.0
  O  O166  1  0.08860000  0.39044000  0.67051000  1.0
  O  O167  1  0.71996000  0.91834000  0.82917000  1.0
  O  O168  1  0.80120000  0.60927000  0.41940000  1.0
  O  O169  1  0.18948000  0.88159000  0.08024000  1.0
  O  O170  1  0.19881000  0.39074000  0.58061000  1.0
  O  O171  1  0.81052000  0.11841000  0.91976000  1.0
