# generated using pymatgen
data_ZnH14C10S4(NO)2
_symmetry_space_group_name_H-M   'P 1'
_cell_length_a   7.17215000
_cell_length_b   7.68034950
_cell_length_c   16.20590000
_cell_angle_alpha   90.00010007
_cell_angle_beta   90.00000000
_cell_angle_gamma   117.78863619
_symmetry_Int_Tables_number   1
_chemical_formula_structural   ZnH14C10S4(NO)2
_chemical_formula_sum   'Zn2 H28 C20 S8 N4 O4'
_cell_volume   789.74430039
_cell_formula_units_Z   2
loop_
 _symmetry_equiv_pos_site_id
 _symmetry_equiv_pos_as_xyz
  1  'x, y, z'
loop_
 _atom_site_type_symbol
 _atom_site_label
 _atom_site_symmetry_multiplicity
 _atom_site_fract_x
 _atom_site_fract_y
 _atom_site_fract_z
 _atom_site_occupancy
  Zn  Zn0  1  0.50000000  0.00000000  0.50000000  1.0
  Zn  Zn1  1  0.00000000  0.00000000  0.00000000  1.0
  H  H2  1  0.71751000  0.18717000  0.79927000  1.0
  H  H3  1  0.78249000  0.81282000  0.29927000  1.0
  H  H4  1  0.96951000  0.18692000  0.70064000  1.0
  H  H5  1  0.53049000  0.81307000  0.20064000  1.0
  H  H6  1  0.28249000  0.81282000  0.20073000  1.0
  H  H7  1  0.21751000  0.18717000  0.70073000  1.0
  H  H8  1  0.03049000  0.81307000  0.29936000  1.0
  H  H9  1  0.46951000  0.18692000  0.79936000  1.0
  H  H10  1  0.70277000  0.40601000  0.91322000  1.0
  H  H11  1  0.79724000  0.59399000  0.41322000  1.0
  H  H12  1  0.20277000  0.40601000  0.58678000  1.0
  H  H13  1  0.29724000  0.59399000  0.08678000  1.0
  H  H14  1  0.64824000  0.54647000  0.83889000  1.0
  H  H15  1  0.85175000  0.45352000  0.33889000  1.0
  H  H16  1  0.39740000  0.54650000  0.66113000  1.0
  H  H17  1  0.10259000  0.45349000  0.16113000  1.0
  H  H18  1  0.35176000  0.45352000  0.16111000  1.0
  H  H19  1  0.14824000  0.54647000  0.66111000  1.0
  H  H20  1  0.60259000  0.45349000  0.33887000  1.0
  H  H21  1  0.89740000  0.54650000  0.83887000  1.0
  H  H22  1  0.94555000  0.24387000  0.42242000  1.0
  H  H23  1  0.55446000  0.75614000  0.92242000  1.0
  H  H24  1  0.79814000  0.24419000  0.07739000  1.0
  H  H25  1  0.70185000  0.75581000  0.57738000  1.0
  H  H26  1  0.05446000  0.75614000  0.57757000  1.0
  H  H27  1  0.44554000  0.24386000  0.07758000  1.0
  H  H28  1  0.20186000  0.75582000  0.92261000  1.0
  H  H29  1  0.29814000  0.24419000  0.42261000  1.0
  C  C30  1  0.61718000  0.23472000  0.64369000  1.0
  C  C31  1  0.88282000  0.76528000  0.14369000  1.0
  C  C32  1  0.11718000  0.23472000  0.85631000  1.0
  C  C33  1  0.38282000  0.76528000  0.35631000  1.0
  C  C34  1  0.64018000  0.28075000  0.79179000  1.0
  C  C35  1  0.85982000  0.71925000  0.29179000  1.0
  C  C36  1  0.14017000  0.28074000  0.70821000  1.0
  C  C37  1  0.35982000  0.71925000  0.20821000  1.0
  C  C38  1  0.72759000  0.45589000  0.84888000  1.0
  C  C39  1  0.77241000  0.54411000  0.34888000  1.0
  C  C40  1  0.22759000  0.45589000  0.65112000  1.0
  C  C41  1  0.27241000  0.54411000  0.15112000  1.0
  C  C42  1  0.96979000  0.13400000  0.45658000  1.0
  C  C43  1  0.53020000  0.86602000  0.95659000  1.0
  C  C44  1  0.66418000  0.13420000  0.04332000  1.0
  C  C45  1  0.83586000  0.86583000  0.54330000  1.0
  C  C46  1  0.03019000  0.86602000  0.54341000  1.0
  C  C47  1  0.46979000  0.13400000  0.04342000  1.0
  C  C48  1  0.33585000  0.86582000  0.95669000  1.0
  C  C49  1  0.16418000  0.13421000  0.45668000  1.0
  S  S50  1  0.49365000  0.98700000  0.65665000  1.0
  S  S51  1  0.00634000  0.01299000  0.15666000  1.0
  S  S52  1  0.99365000  0.98700000  0.84334000  1.0
  S  S53  1  0.50634000  0.01299000  0.34334000  1.0
  S  S54  1  0.67241000  0.34526000  0.54964000  1.0
  S  S55  1  0.82759000  0.65474000  0.04964000  1.0
  S  S56  1  0.17241000  0.34526000  0.95036000  1.0
  S  S57  1  0.32759000  0.65474000  0.45036000  1.0
  N  N58  1  0.80699000  0.99986000  0.49990000  1.0
  N  N59  1  0.69300000  0.00013000  0.99990000  1.0
  N  N60  1  0.19301000  0.00013000  0.50010000  1.0
  N  N61  1  0.30699000  0.99987000  0.00010000  1.0
  O  O62  1  0.67922000  0.35940000  0.70790000  1.0
  O  O63  1  0.82077000  0.64059000  0.20790000  1.0
  O  O64  1  0.17922000  0.35940000  0.79210000  1.0
  O  O65  1  0.32077000  0.64059000  0.29210000  1.0
