# generated using pymatgen
data_CuH6C7N4
_symmetry_space_group_name_H-M   'P 1'
_cell_length_a   4.77883000
_cell_length_b   12.17530000
_cell_length_c   13.98450000
_cell_angle_alpha   72.13000000
_cell_angle_beta   89.96150000
_cell_angle_gamma   78.71600000
_symmetry_Int_Tables_number   1
_chemical_formula_structural   CuH6C7N4
_chemical_formula_sum   'Cu4 H24 C28 N16'
_cell_volume   757.90647414
_cell_formula_units_Z   4
loop_
 _symmetry_equiv_pos_site_id
 _symmetry_equiv_pos_as_xyz
  1  'x, y, z'
loop_
 _atom_site_type_symbol
 _atom_site_label
 _atom_site_symmetry_multiplicity
 _atom_site_fract_x
 _atom_site_fract_y
 _atom_site_fract_z
 _atom_site_occupancy
  Cu  Cu0  1  0.50363000  0.04358000  0.62842000  1.0
  Cu  Cu1  1  0.54627000  0.95670000  0.87103000  1.0
  Cu  Cu2  1  0.49636000  0.95641000  0.37158000  1.0
  Cu  Cu3  1  0.45373000  0.04330000  0.12897000  1.0
  H  H4  1  0.91507000  0.82711000  0.56265000  1.0
  H  H5  1  0.74022000  0.17290000  0.93755000  1.0
  H  H6  1  0.08494000  0.17289000  0.43735000  1.0
  H  H7  1  0.25978000  0.82710000  0.06245000  1.0
  H  H8  1  0.21981000  0.81327000  0.74714000  1.0
  H  H9  1  0.03248000  0.18686000  0.75274000  1.0
  H  H10  1  0.78019000  0.18674000  0.25286000  1.0
  H  H11  1  0.96751000  0.81314000  0.24726000  1.0
  H  H12  1  0.95219000  0.51456000  0.68632000  1.0
  H  H13  1  0.46681000  0.48562000  0.81344000  1.0
  H  H14  1  0.04781000  0.48544000  0.31368000  1.0
  H  H15  1  0.53319000  0.51438000  0.18656000  1.0
  H  H16  1  0.04531000  0.61311000  0.57358000  1.0
  H  H17  1  0.65804000  0.38704000  0.92613000  1.0
  H  H18  1  0.95469000  0.38688000  0.42642000  1.0
  H  H19  1  0.34196000  0.61296000  0.07387000  1.0
  H  H20  1  0.60925000  0.69972000  0.42759000  1.0
  H  H21  1  0.30820000  0.30030000  0.07215000  1.0
  H  H22  1  0.39075000  0.30028000  0.57241000  1.0
  H  H23  1  0.69180000  0.69970000  0.92785000  1.0
  H  H24  1  0.70102000  0.37369000  0.67075000  1.0
  H  H25  1  0.07518000  0.62646000  0.82925000  1.0
  H  H26  1  0.29899000  0.62631000  0.32926000  1.0
  H  H27  1  0.92482000  0.37354000  0.17075000  1.0
  C  C28  1  0.85775000  0.08227000  0.62021000  1.0
  C  C29  1  0.93882000  0.91805000  0.87905000  1.0
  C  C30  1  0.14225000  0.91773000  0.37979000  1.0
  C  C31  1  0.06118000  0.08195000  0.12095000  1.0
  C  C32  1  0.75062000  0.79780000  0.61176000  1.0
  C  C33  1  0.54694000  0.20225000  0.88832000  1.0
  C  C34  1  0.24939000  0.20220000  0.38824000  1.0
  C  C35  1  0.45306000  0.79775000  0.11168000  1.0
  C  C36  1  0.39618000  0.78742000  0.70439000  1.0
  C  C37  1  0.18278000  0.21268000  0.79556000  1.0
  C  C38  1  0.60382000  0.21258000  0.29561000  1.0
  C  C39  1  0.81721000  0.78732000  0.20444000  1.0
  C  C40  1  0.86547000  0.58437000  0.61628000  1.0
  C  C41  1  0.44960000  0.41578000  0.88348000  1.0
  C  C42  1  0.13453000  0.41563000  0.38373000  1.0
  C  C43  1  0.55040000  0.58422000  0.11652000  1.0
  C  C44  1  0.67689000  0.54075000  0.55582000  1.0
  C  C45  1  0.21750000  0.45937000  0.94406000  1.0
  C  C46  1  0.32310000  0.45924000  0.44419000  1.0
  C  C47  1  0.78251000  0.54063000  0.05594000  1.0
  C  C48  1  0.56281000  0.61184000  0.45954000  1.0
  C  C49  1  0.17425000  0.38818000  0.04032000  1.0
  C  C50  1  0.43720000  0.38816000  0.54047000  1.0
  C  C51  1  0.82576000  0.61182000  0.95968000  1.0
  C  C52  1  0.61279000  0.42882000  0.59571000  1.0
  C  C53  1  0.04189000  0.57129000  0.90429000  1.0
  C  C54  1  0.38721000  0.57117000  0.40429000  1.0
  C  C55  1  0.95811000  0.42871000  0.09571000  1.0
  N  N56  1  0.55540000  0.86422000  0.65057000  1.0
  N  N57  1  0.41790000  0.13579000  0.84964000  1.0
  N  N58  1  0.44460000  0.13578000  0.34943000  1.0
  N  N59  1  0.58209000  0.86421000  0.15036000  1.0
  N  N60  1  0.48203000  0.67817000  0.70080000  1.0
  N  N61  1  0.16019000  0.32200000  0.79891000  1.0
  N  N62  1  0.51798000  0.32183000  0.29920000  1.0
  N  N63  1  0.83981000  0.67800000  0.20109000  1.0
  N  N64  1  0.70878000  0.68662000  0.64161000  1.0
  N  N65  1  0.39492000  0.31353000  0.85818000  1.0
  N  N66  1  0.29122000  0.31338000  0.35839000  1.0
  N  N67  1  0.60508000  0.68647000  0.14182000  1.0
  N  N68  1  0.10203000  0.08688000  0.61991000  1.0
  N  N69  1  0.18778000  0.91323000  0.87962000  1.0
  N  N70  1  0.89797000  0.91312000  0.38009000  1.0
  N  N71  1  0.81221000  0.08677000  0.12038000  1.0
