# generated using pymatgen
data_AgH9C10NCl
_symmetry_space_group_name_H-M   'P 1'
_cell_length_a   4.02360000
_cell_length_b   14.89940000
_cell_length_c   15.26120000
_cell_angle_alpha   90.00050000
_cell_angle_beta   90.00040000
_cell_angle_gamma   94.13020000
_symmetry_Int_Tables_number   1
_chemical_formula_structural   AgH9C10NCl
_chemical_formula_sum   'Ag4 H36 C40 N4 Cl4'
_cell_volume   912.52109983
_cell_formula_units_Z   4
loop_
 _symmetry_equiv_pos_site_id
 _symmetry_equiv_pos_as_xyz
  1  'x, y, z'
loop_
 _atom_site_type_symbol
 _atom_site_label
 _atom_site_symmetry_multiplicity
 _atom_site_fract_x
 _atom_site_fract_y
 _atom_site_fract_z
 _atom_site_occupancy
  Ag  Ag0  1  0.31383000  0.92112000  0.04351000  1.0
  Ag  Ag1  1  0.18618000  0.57887000  0.54351000  1.0
  Ag  Ag2  1  0.68617000  0.07887000  0.95649000  1.0
  Ag  Ag3  1  0.81384000  0.42112000  0.45649000  1.0
  H  H4  1  0.81329000  0.77490000  0.08194000  1.0
  H  H5  1  0.68671000  0.72511000  0.58194000  1.0
  H  H6  1  0.18670000  0.22511000  0.91806000  1.0
  H  H7  1  0.31331000  0.27489000  0.41806000  1.0
  H  H8  1  0.17462000  0.71605000  0.06689000  1.0
  H  H9  1  0.32537000  0.78395000  0.56689000  1.0
  H  H10  1  0.82537000  0.28395000  0.93312000  1.0
  H  H11  1  0.67464000  0.21605000  0.43311000  1.0
  H  H12  1  0.84705000  0.66804000  0.13437000  1.0
  H  H13  1  0.65294000  0.83197000  0.63437000  1.0
  H  H14  1  0.15294000  0.33197000  0.86563000  1.0
  H  H15  1  0.34707000  0.16803000  0.36563000  1.0
  H  H16  1  0.96433000  0.67772000  0.28790000  1.0
  H  H17  1  0.53565000  0.82228000  0.78790000  1.0
  H  H18  1  0.03564000  0.32228000  0.71210000  1.0
  H  H19  1  0.46438000  0.17771000  0.21210000  1.0
  H  H20  1  0.23564000  0.75674000  0.41331000  1.0
  H  H21  1  0.26436000  0.74326000  0.91331000  1.0
  H  H22  1  0.76434000  0.24326000  0.58669000  1.0
  H  H23  1  0.73565000  0.25674000  0.08669000  1.0
  H  H24  1  0.58628000  0.89318000  0.46958000  1.0
  H  H25  1  0.91374000  0.60682000  0.96958000  1.0
  H  H26  1  0.41373000  0.10682000  0.53042000  1.0
  H  H27  1  0.08624000  0.39319000  0.03042000  1.0
  H  H28  1  0.91031000  0.03800000  0.43837000  1.0
  H  H29  1  0.58971000  0.46200000  0.93836000  1.0
  H  H30  1  0.08971000  0.96200000  0.56163000  1.0
  H  H31  1  0.41027000  0.53800000  0.06164000  1.0
  H  H32  1  0.96397000  0.09404000  0.28399000  1.0
  H  H33  1  0.53604000  0.40596000  0.78398000  1.0
  H  H34  1  0.03604000  0.90595000  0.71601000  1.0
  H  H35  1  0.46395000  0.59405000  0.21602000  1.0
  H  H36  1  0.68508000  0.00928000  0.16305000  1.0
  H  H37  1  0.81493000  0.49072000  0.66304000  1.0
  H  H38  1  0.31491000  0.99072000  0.83696000  1.0
  H  H39  1  0.18509000  0.50928000  0.33696000  1.0
  C  C40  1  0.14394000  0.77855000  0.19256000  1.0
  C  C41  1  0.35605000  0.72145000  0.69256000  1.0
  C  C42  1  0.85603000  0.22145000  0.80744000  1.0
  C  C43  1  0.64397000  0.27855000  0.30744000  1.0
  C  C44  1  0.98338000  0.73128000  0.11514000  1.0
  C  C45  1  0.51662000  0.76873000  0.61514000  1.0
  C  C46  1  0.01660000  0.26872000  0.88486000  1.0
  C  C47  1  0.48340000  0.23127000  0.38486000  1.0
  C  C48  1  0.11097000  0.74116000  0.27765000  1.0
  C  C49  1  0.38903000  0.75884000  0.77765000  1.0
  C  C50  1  0.88901000  0.25884000  0.72236000  1.0
  C  C51  1  0.61099000  0.24116000  0.22235000  1.0
  C  C52  1  0.26032000  0.78576000  0.34781000  1.0
  C  C53  1  0.23968000  0.71424000  0.84781000  1.0
  C  C54  1  0.73966000  0.21424000  0.65219000  1.0
  C  C55  1  0.76033000  0.28576000  0.15219000  1.0
  C  C56  1  0.44746000  0.86856000  0.33422000  1.0
  C  C57  1  0.05255000  0.63144000  0.83422000  1.0
  C  C58  1  0.55254000  0.13144000  0.66578000  1.0
  C  C59  1  0.94745000  0.36856000  0.16578000  1.0
  C  C60  1  0.60770000  0.91915000  0.40284000  1.0
  C  C61  1  0.89233000  0.58085000  0.90284000  1.0
  C  C62  1  0.39232000  0.08085000  0.59716000  1.0
  C  C63  1  0.10766000  0.41915000  0.09716000  1.0
  C  C64  1  0.78738000  0.99945000  0.38533000  1.0
  C  C65  1  0.71263000  0.50055000  0.88533000  1.0
  C  C66  1  0.21262000  0.00055000  0.61467000  1.0
  C  C67  1  0.28736000  0.49945000  0.11467000  1.0
  C  C68  1  0.81674000  0.03152000  0.29828000  1.0
  C  C69  1  0.68328000  0.46848000  0.79827000  1.0
  C  C70  1  0.18327000  0.96848000  0.70172000  1.0
  C  C71  1  0.31672000  0.53153000  0.20173000  1.0
  C  C72  1  0.66180000  0.98437000  0.23016000  1.0
  C  C73  1  0.83821000  0.51563000  0.73015000  1.0
  C  C74  1  0.33820000  0.01563000  0.76984000  1.0
  C  C75  1  0.16180000  0.48437000  0.26984000  1.0
  C  C76  1  0.47255000  0.90234000  0.24641000  1.0
  C  C77  1  0.02747000  0.59766000  0.74641000  1.0
  C  C78  1  0.52745000  0.09766000  0.75359000  1.0
  C  C79  1  0.97254000  0.40234000  0.25359000  1.0
  N  N80  1  0.31828000  0.85678000  0.17780000  1.0
  N  N81  1  0.18173000  0.64322000  0.67780000  1.0
  N  N82  1  0.68171000  0.14321000  0.82220000  1.0
  N  N83  1  0.81828000  0.35678000  0.32220000  1.0
  Cl  Cl84  1  0.80444000  0.89820000  0.93829000  1.0
  Cl  Cl85  1  0.69556000  0.60180000  0.43829000  1.0
  Cl  Cl86  1  0.19556000  0.10180000  0.06171000  1.0
  Cl  Cl87  1  0.30445000  0.39819000  0.56171000  1.0
