# generated using pymatgen
data_Cd3H42C36(N2O7)2
_symmetry_space_group_name_H-M   'P 1'
_cell_length_a   9.12602000
_cell_length_b   9.45033000
_cell_length_c   18.62710000
_cell_angle_alpha   93.49390000
_cell_angle_beta   93.04370000
_cell_angle_gamma   118.03800000
_symmetry_Int_Tables_number   1
_chemical_formula_structural   Cd3H42C36(N2O7)2
_chemical_formula_sum   'Cd3 H42 C36 N4 O14'
_cell_volume   1409.19063923
_cell_formula_units_Z   1
loop_
 _symmetry_equiv_pos_site_id
 _symmetry_equiv_pos_as_xyz
  1  'x, y, z'
loop_
 _atom_site_type_symbol
 _atom_site_label
 _atom_site_symmetry_multiplicity
 _atom_site_fract_x
 _atom_site_fract_y
 _atom_site_fract_z
 _atom_site_occupancy
  Cd  Cd0  1  0.99924000  0.91052000  0.81892000  1.0
  Cd  Cd1  1  0.00076000  0.08949000  0.18108000  1.0
  Cd  Cd2  1  0.99999000  0.00000000  0.00000000  1.0
  H  H3  1  0.78563000  0.17412000  0.96567000  1.0
  H  H4  1  0.97604000  0.42983000  0.91974000  1.0
  H  H5  1  0.83456000  0.38993000  0.84268000  1.0
  H  H6  1  0.77241000  0.44256000  0.99992000  1.0
  H  H7  1  0.55202000  0.38310000  0.85971000  1.0
  H  H8  1  0.50614000  0.42425000  0.94755000  1.0
  H  H9  1  0.49169000  0.17056000  0.98451000  1.0
  H  H10  1  0.55400000  0.10863000  0.82866000  1.0
  H  H11  1  0.52191000  0.98020000  0.89877000  1.0
  H  H12  1  0.81066000  0.57873000  0.73298000  1.0
  H  H13  1  0.63056000  0.43339000  0.61985000  1.0
  H  H14  1  0.51238000  0.66208000  0.48208000  1.0
  H  H15  1  0.67300000  0.88952000  0.56538000  1.0
  H  H16  1  0.84641000  0.01364000  0.68417000  1.0
  H  H17  1  0.12983000  0.65436000  0.85904000  1.0
  H  H18  1  0.56004000  0.81966000  0.76716000  1.0
  H  H19  1  0.42880000  0.64070000  0.70930000  1.0
  H  H20  1  0.38457000  0.80727000  0.71354000  1.0
  H  H21  1  0.34896000  0.46773000  0.81963000  1.0
  H  H22  1  0.49546000  0.64782000  0.87357000  1.0
  H  H23  1  0.28182000  0.54403000  0.89309000  1.0
  H  H24  1  0.21437000  0.82588000  0.03433000  1.0
  H  H25  1  0.02396000  0.57017000  0.08026000  1.0
  H  H26  1  0.16544000  0.61007000  0.15732000  1.0
  H  H27  1  0.22759000  0.55744000  0.00008000  1.0
  H  H28  1  0.44798000  0.61689000  0.14028000  1.0
  H  H29  1  0.49386000  0.57575000  0.05245000  1.0
  H  H30  1  0.50832000  0.82944000  0.01550000  1.0
  H  H31  1  0.44600000  0.89136000  0.17134000  1.0
  H  H32  1  0.47809000  0.01980000  0.10123000  1.0
  H  H33  1  0.18935000  0.42127000  0.26701000  1.0
  H  H34  1  0.36945000  0.56661000  0.38015000  1.0
  H  H35  1  0.48760000  0.33792000  0.51792000  1.0
  H  H36  1  0.32698000  0.11048000  0.43462000  1.0
  H  H37  1  0.15358000  0.98635000  0.31584000  1.0
  H  H38  1  0.87017000  0.34564000  0.14096000  1.0
  H  H39  1  0.43996000  0.18034000  0.23284000  1.0
  H  H40  1  0.57119000  0.35930000  0.29070000  1.0
  H  H41  1  0.61543000  0.19273000  0.28646000  1.0
  H  H42  1  0.65105000  0.53227000  0.18037000  1.0
  H  H43  1  0.50454000  0.35220000  0.12643000  1.0
  H  H44  1  0.71819000  0.45598000  0.10691000  1.0
  C  C45  1  0.84125000  0.11041000  0.86261000  1.0
  C  C46  1  0.76501000  0.19248000  0.90902000  1.0
  C  C47  1  0.84285000  0.37232000  0.90027000  1.0
  C  C48  1  0.75605000  0.45194000  0.94174000  1.0
  C  C49  1  0.56892000  0.36821000  0.91717000  1.0
  C  C50  1  0.48709000  0.18845000  0.92672000  1.0
  C  C51  1  0.57617000  0.10694000  0.88726000  1.0
  C  C52  1  0.83222000  0.63130000  0.93154000  1.0
  C  C53  1  0.30536000  0.10001000  0.89657000  1.0
  C  C54  1  0.77753000  0.64214000  0.69359000  1.0
  C  C55  1  0.67715000  0.56273000  0.63029000  1.0
  C  C56  1  0.63717000  0.64997000  0.58131000  1.0
  C  C57  1  0.53398000  0.57814000  0.51323000  1.0
  C  C58  1  0.70111000  0.81595000  0.60080000  1.0
  C  C59  1  0.79937000  0.88672000  0.66565000  1.0
  C  C60  1  0.19714000  0.70452000  0.81166000  1.0
  C  C61  1  0.43101000  0.73951000  0.74458000  1.0
  C  C62  1  0.36540000  0.57872000  0.84983000  1.0
  C  C63  1  0.15874000  0.88958000  0.13739000  1.0
  C  C64  1  0.23499000  0.80752000  0.09098000  1.0
  C  C65  1  0.15715000  0.62768000  0.09973000  1.0
  C  C66  1  0.24394000  0.54805000  0.05826000  1.0
  C  C67  1  0.43108000  0.63179000  0.08283000  1.0
  C  C68  1  0.51291000  0.81155000  0.07328000  1.0
  C  C69  1  0.42383000  0.89306000  0.11274000  1.0
  C  C70  1  0.16777000  0.36870000  0.06846000  1.0
  C  C71  1  0.69464000  0.89999000  0.10343000  1.0
  C  C72  1  0.22249000  0.35786000  0.30641000  1.0
  C  C73  1  0.32286000  0.43727000  0.36971000  1.0
  C  C74  1  0.36283000  0.35004000  0.41869000  1.0
  C  C75  1  0.46601000  0.42186000  0.48678000  1.0
  C  C76  1  0.29888000  0.18405000  0.39920000  1.0
  C  C77  1  0.20063000  0.11328000  0.33435000  1.0
  C  C78  1  0.80286000  0.29549000  0.18834000  1.0
  C  C79  1  0.56899000  0.26049000  0.25542000  1.0
  C  C80  1  0.63460000  0.42128000  0.15017000  1.0
  N  N81  1  0.83813000  0.80149000  0.71092000  1.0
  N  N82  1  0.32559000  0.67540000  0.80265000  1.0
  N  N83  1  0.16188000  0.19851000  0.28908000  1.0
  N  N84  1  0.67441000  0.32460000  0.19735000  1.0
  O  O85  1  0.86180000  0.99801000  0.89191000  1.0
  O  O86  1  0.87316000  0.14250000  0.79940000  1.0
  O  O87  1  0.26207000  0.13455000  0.83691000  1.0
  O  O88  1  0.20311000  0.98342000  0.93015000  1.0
  O  O89  1  0.85395000  0.66812000  0.86699000  1.0
  O  O90  1  0.86494000  0.72722000  0.98836000  1.0
  O  O91  1  0.15446000  0.78178000  0.77069000  1.0
  O  O92  1  0.13817000  0.00198000  0.10809000  1.0
  O  O93  1  0.12686000  0.85750000  0.20060000  1.0
  O  O94  1  0.73792000  0.86545000  0.16309000  1.0
  O  O95  1  0.79689000  0.01659000  0.06986000  1.0
  O  O96  1  0.14606000  0.33188000  0.13301000  1.0
  O  O97  1  0.13505000  0.27277000  0.01164000  1.0
  O  O98  1  0.84554000  0.21824000  0.22932000  1.0
