# generated using pymatgen
data_CdH10C7Se2SN4
_symmetry_space_group_name_H-M   'P 1'
_cell_length_a   7.28099000
_cell_length_b   11.89450000
_cell_length_c   14.46610000
_cell_angle_alpha   90.00090000
_cell_angle_beta   90.00040000
_cell_angle_gamma   89.99850000
_symmetry_Int_Tables_number   1
_chemical_formula_structural   CdH10C7Se2SN4
_chemical_formula_sum   'Cd4 H40 C28 Se8 S4 N16'
_cell_volume   1252.81829830
_cell_formula_units_Z   4
loop_
 _symmetry_equiv_pos_site_id
 _symmetry_equiv_pos_as_xyz
  1  'x, y, z'
loop_
 _atom_site_type_symbol
 _atom_site_label
 _atom_site_symmetry_multiplicity
 _atom_site_fract_x
 _atom_site_fract_y
 _atom_site_fract_z
 _atom_site_occupancy
  Cd  Cd0  1  0.82256000  0.80004000  0.71887000  1.0
  Cd  Cd1  1  0.17744000  0.30002000  0.28113000  1.0
  Cd  Cd2  1  0.17743000  0.80002000  0.21886000  1.0
  Cd  Cd3  1  0.82259000  0.30005000  0.78114000  1.0
  H  H4  1  0.30404000  0.90514000  0.54203000  1.0
  H  H5  1  0.69596000  0.40514000  0.45798000  1.0
  H  H6  1  0.69597000  0.90514000  0.04203000  1.0
  H  H7  1  0.30405000  0.40514000  0.95798000  1.0
  H  H8  1  0.34659000  0.94558000  0.65920000  1.0
  H  H9  1  0.65342000  0.44558000  0.34081000  1.0
  H  H10  1  0.65342000  0.94558000  0.15920000  1.0
  H  H11  1  0.34658000  0.44558000  0.84081000  1.0
  H  H12  1  0.46003000  0.82596000  0.61204000  1.0
  H  H13  1  0.53998000  0.32596000  0.38796000  1.0
  H  H14  1  0.53998000  0.82596000  0.11204000  1.0
  H  H15  1  0.46004000  0.32596000  0.88796000  1.0
  H  H16  1  0.09216000  0.07104000  0.51020000  1.0
  H  H17  1  0.90784000  0.57105000  0.48981000  1.0
  H  H18  1  0.90784000  0.07105000  0.01019000  1.0
  H  H19  1  0.09216000  0.57105000  0.98981000  1.0
  H  H20  1  0.01140000  0.06385000  0.39345000  1.0
  H  H21  1  0.98859000  0.56386000  0.60655000  1.0
  H  H22  1  0.98859000  0.06386000  0.89345000  1.0
  H  H23  1  0.01141000  0.56386000  0.10655000  1.0
  H  H24  1  0.04743000  0.93724000  0.45700000  1.0
  H  H25  1  0.95257000  0.43724000  0.54300000  1.0
  H  H26  1  0.95258000  0.93724000  0.95700000  1.0
  H  H27  1  0.04743000  0.43724000  0.04300000  1.0
  H  H28  1  0.48772000  0.14633000  0.60322000  1.0
  H  H29  1  0.51227000  0.64633000  0.39678000  1.0
  H  H30  1  0.51227000  0.14633000  0.10322000  1.0
  H  H31  1  0.48773000  0.64633000  0.89678000  1.0
  H  H32  1  0.41927000  0.10393000  0.49038000  1.0
  H  H33  1  0.58072000  0.60393000  0.50962000  1.0
  H  H34  1  0.58073000  0.10393000  0.99038000  1.0
  H  H35  1  0.41927000  0.60393000  0.00962000  1.0
  H  H36  1  0.70551000  0.17501000  0.43458000  1.0
  H  H37  1  0.29447000  0.67502000  0.56542000  1.0
  H  H38  1  0.29448000  0.17502000  0.93458000  1.0
  H  H39  1  0.70551000  0.67502000  0.06542000  1.0
  H  H40  1  0.79289000  0.19085000  0.54921000  1.0
  H  H41  1  0.20710000  0.69085000  0.45079000  1.0
  H  H42  1  0.20710000  0.19085000  0.04921000  1.0
  H  H43  1  0.79289000  0.69086000  0.95080000  1.0
  C  C44  1  0.72295000  0.94287000  0.53436000  1.0
  C  C45  1  0.27705000  0.44287000  0.46563000  1.0
  C  C46  1  0.27706000  0.94287000  0.03437000  1.0
  C  C47  1  0.72295000  0.44288000  0.96564000  1.0
  C  C48  1  0.40894000  0.91046000  0.59666000  1.0
  C  C49  1  0.59107000  0.41046000  0.40334000  1.0
  C  C50  1  0.59107000  0.91046000  0.09666000  1.0
  C  C51  1  0.40894000  0.41046000  0.90334000  1.0
  C  C52  1  0.00262000  0.02484000  0.46200000  1.0
  C  C53  1  0.99737000  0.52484000  0.53801000  1.0
  C  C54  1  0.99738000  0.02484000  0.96199000  1.0
  C  C55  1  0.00263000  0.52485000  0.03801000  1.0
  C  C56  1  0.52969000  0.09800000  0.54207000  1.0
  C  C57  1  0.47030000  0.59800000  0.45793000  1.0
  C  C58  1  0.47030000  0.09800000  0.04207000  1.0
  C  C59  1  0.52970000  0.59800000  0.95793000  1.0
  C  C60  1  0.71645000  0.13439000  0.50252000  1.0
  C  C61  1  0.28354000  0.63439000  0.49747000  1.0
  C  C62  1  0.28355000  0.13439000  0.00252000  1.0
  C  C63  1  0.71645000  0.63440000  0.99748000  1.0
  C  C64  1  0.05167000  0.56298000  0.78327000  1.0
  C  C65  1  0.94832000  0.06296000  0.21674000  1.0
  C  C66  1  0.94833000  0.56296000  0.28326000  1.0
  C  C67  1  0.05167000  0.06298000  0.71673000  1.0
  C  C68  1  0.61680000  0.03659000  0.80055000  1.0
  C  C69  1  0.38320000  0.53653000  0.19942000  1.0
  C  C70  1  0.38321000  0.03653000  0.30057000  1.0
  C  C71  1  0.61678000  0.53657000  0.69944000  1.0
  Se  Se72  1  0.13454000  0.70619000  0.78386000  1.0
  Se  Se73  1  0.86546000  0.20617000  0.21614000  1.0
  Se  Se74  1  0.86546000  0.70618000  0.28386000  1.0
  Se  Se75  1  0.13455000  0.20619000  0.71613000  1.0
  Se  Se76  1  0.56842000  0.89305000  0.83374000  1.0
  Se  Se77  1  0.43158000  0.39300000  0.16626000  1.0
  Se  Se78  1  0.43159000  0.89300000  0.33373000  1.0
  Se  Se79  1  0.56841000  0.39304000  0.66627000  1.0
  S  S80  1  0.80133000  0.80763000  0.54099000  1.0
  S  S81  1  0.19868000  0.30763000  0.45901000  1.0
  S  S82  1  0.19868000  0.80763000  0.04098000  1.0
  S  S83  1  0.80134000  0.30763000  0.95901000  1.0
  N  N84  1  0.56037000  0.97996000  0.56701000  1.0
  N  N85  1  0.43963000  0.47996000  0.43299000  1.0
  N  N86  1  0.43963000  0.97996000  0.06700000  1.0
  N  N87  1  0.56037000  0.47996000  0.93299000  1.0
  N  N88  1  0.81506000  0.02753000  0.49378000  1.0
  N  N89  1  0.18493000  0.52753000  0.50622000  1.0
  N  N90  1  0.18494000  0.02754000  0.99377000  1.0
  N  N91  1  0.81506000  0.52754000  0.00623000  1.0
  N  N92  1  0.00267000  0.46861000  0.78317000  1.0
  N  N93  1  0.99733000  0.96859000  0.21685000  1.0
  N  N94  1  0.99734000  0.46860000  0.28316000  1.0
  N  N95  1  0.00267000  0.96862000  0.71684000  1.0
  N  N96  1  0.64340000  0.13073000  0.77883000  1.0
  N  N97  1  0.35660000  0.63066000  0.22114000  1.0
  N  N98  1  0.35661000  0.13067000  0.27885000  1.0
  N  N99  1  0.64338000  0.63071000  0.72116000  1.0
