# generated using pymatgen
data_Mn3H16C16(N5O6)2
_symmetry_space_group_name_H-M   'P 1'
_cell_length_a   12.08290000
_cell_length_b   13.18240000
_cell_length_c   17.05570000
_cell_angle_alpha   89.99940000
_cell_angle_beta   90.00010000
_cell_angle_gamma   89.99970000
_symmetry_Int_Tables_number   1
_chemical_formula_structural   Mn3H16C16(N5O6)2
_chemical_formula_sum   'Mn12 H64 C64 N40 O48'
_cell_volume   2716.65954242
_cell_formula_units_Z   4
loop_
 _symmetry_equiv_pos_site_id
 _symmetry_equiv_pos_as_xyz
  1  'x, y, z'
loop_
 _atom_site_type_symbol
 _atom_site_label
 _atom_site_symmetry_multiplicity
 _atom_site_fract_x
 _atom_site_fract_y
 _atom_site_fract_z
 _atom_site_occupancy
  Mn  Mn0  1  0.79271000  0.25337000  0.79036000  1.0
  Mn  Mn1  1  0.70732000  0.74662000  0.29036000  1.0
  Mn  Mn2  1  0.20731000  0.75339000  0.70964000  1.0
  Mn  Mn3  1  0.29269000  0.24662000  0.20965000  1.0
  Mn  Mn4  1  0.20731000  0.74662000  0.20965000  1.0
  Mn  Mn5  1  0.29270000  0.25337000  0.70964000  1.0
  Mn  Mn6  1  0.79269000  0.24663000  0.29035000  1.0
  Mn  Mn7  1  0.70731000  0.75338000  0.79034000  1.0
  Mn  Mn8  1  0.50000000  0.49999000  0.50000000  1.0
  Mn  Mn9  1  0.00001000  0.50001000  0.99999000  1.0
  Mn  Mn10  1  0.49999000  0.99999000  0.00001000  1.0
  Mn  Mn11  1  0.00000000  0.00001000  0.50000000  1.0
  H  H12  1  0.00833000  0.40820000  0.71176000  1.0
  H  H13  1  0.49167000  0.59182000  0.21175000  1.0
  H  H14  1  0.99167000  0.90820000  0.78823000  1.0
  H  H15  1  0.50833000  0.09181000  0.28825000  1.0
  H  H16  1  0.99167000  0.59180000  0.28824000  1.0
  H  H17  1  0.50833000  0.40818000  0.78825000  1.0
  H  H18  1  0.00834000  0.09182000  0.21177000  1.0
  H  H19  1  0.49166000  0.90819000  0.71174000  1.0
  H  H20  1  0.66550000  0.45933000  0.70957000  1.0
  H  H21  1  0.83449000  0.54066000  0.20958000  1.0
  H  H22  1  0.33450000  0.95935000  0.79044000  1.0
  H  H23  1  0.16550000  0.04065000  0.29042000  1.0
  H  H24  1  0.33450000  0.54065000  0.29043000  1.0
  H  H25  1  0.16550000  0.45934000  0.79042000  1.0
  H  H26  1  0.66551000  0.04067000  0.20958000  1.0
  H  H27  1  0.83449000  0.95935000  0.70957000  1.0
  H  H28  1  0.80296000  0.67281000  0.60249000  1.0
  H  H29  1  0.69702000  0.32721000  0.10247000  1.0
  H  H30  1  0.19703000  0.17281000  0.89752000  1.0
  H  H31  1  0.30297000  0.82720000  0.39753000  1.0
  H  H32  1  0.19703000  0.32719000  0.39752000  1.0
  H  H33  1  0.30299000  0.67279000  0.89752000  1.0
  H  H34  1  0.80298000  0.82720000  0.10249000  1.0
  H  H35  1  0.69702000  0.17280000  0.60246000  1.0
  H  H36  1  0.74486000  0.57801000  0.53916000  1.0
  H  H37  1  0.75513000  0.42202000  0.03915000  1.0
  H  H38  1  0.25512000  0.07799000  0.96084000  1.0
  H  H39  1  0.24487000  0.92202000  0.46085000  1.0
  H  H40  1  0.25514000  0.42201000  0.46084000  1.0
  H  H41  1  0.24487000  0.57799000  0.96084000  1.0
  H  H42  1  0.74487000  0.92201000  0.03917000  1.0
  H  H43  1  0.75513000  0.07799000  0.53915000  1.0
  H  H44  1  0.76559000  0.41042000  0.90482000  1.0
  H  H45  1  0.73441000  0.58959000  0.40484000  1.0
  H  H46  1  0.23442000  0.91041000  0.59516000  1.0
  H  H47  1  0.26559000  0.08959000  0.09517000  1.0
  H  H48  1  0.23441000  0.58959000  0.09517000  1.0
  H  H49  1  0.26560000  0.41039000  0.59516000  1.0
  H  H50  1  0.76558000  0.08960000  0.40483000  1.0
  H  H51  1  0.73441000  0.91040000  0.90484000  1.0
  H  H52  1  0.65903000  0.33890000  0.91384000  1.0
  H  H53  1  0.84097000  0.66110000  0.41386000  1.0
  H  H54  1  0.34099000  0.83889000  0.58614000  1.0
  H  H55  1  0.15903000  0.16111000  0.08615000  1.0
  H  H56  1  0.34097000  0.66111000  0.08615000  1.0
  H  H57  1  0.15903000  0.33888000  0.58615000  1.0
  H  H58  1  0.65902000  0.16112000  0.41385000  1.0
  H  H59  1  0.84098000  0.83888000  0.91385000  1.0
  H  H60  1  0.47250000  0.68105000  0.39972000  1.0
  H  H61  1  0.02750000  0.31895000  0.89969000  1.0
  H  H62  1  0.52750000  0.18105000  0.10029000  1.0
  H  H63  1  0.97250000  0.81896000  0.60028000  1.0
  H  H64  1  0.52750000  0.31892000  0.60029000  1.0
  H  H65  1  0.97250000  0.68106000  0.10028000  1.0
  H  H66  1  0.47249000  0.81894000  0.89972000  1.0
  H  H67  1  0.02750000  0.18106000  0.39970000  1.0
  H  H68  1  0.35617000  0.64402000  0.42935000  1.0
  H  H69  1  0.14382000  0.35598000  0.92934000  1.0
  H  H70  1  0.64382000  0.14402000  0.07065000  1.0
  H  H71  1  0.85616000  0.85597000  0.57066000  1.0
  H  H72  1  0.64382000  0.35597000  0.57066000  1.0
  H  H73  1  0.85617000  0.64403000  0.07065000  1.0
  H  H74  1  0.35617000  0.85598000  0.92935000  1.0
  H  H75  1  0.14382000  0.14402000  0.42935000  1.0
  C  C76  1  0.92721000  0.43851000  0.69812000  1.0
  C  C77  1  0.57278000  0.56150000  0.19812000  1.0
  C  C78  1  0.07278000  0.93852000  0.80186000  1.0
  C  C79  1  0.42722000  0.06150000  0.30188000  1.0
  C  C80  1  0.07278000  0.56149000  0.30188000  1.0
  C  C81  1  0.42722000  0.43850000  0.80188000  1.0
  C  C82  1  0.92722000  0.06150000  0.19814000  1.0
  C  C83  1  0.57278000  0.93851000  0.69811000  1.0
  C  C84  1  0.75357000  0.46262000  0.69845000  1.0
  C  C85  1  0.74643000  0.53738000  0.19845000  1.0
  C  C86  1  0.24643000  0.96263000  0.80154000  1.0
  C  C87  1  0.25357000  0.03738000  0.30154000  1.0
  C  C88  1  0.24643000  0.53738000  0.30154000  1.0
  C  C89  1  0.25357000  0.46262000  0.80154000  1.0
  C  C90  1  0.75358000  0.03739000  0.19847000  1.0
  C  C91  1  0.74643000  0.96263000  0.69845000  1.0
  C  C92  1  0.74940000  0.60583000  0.59970000  1.0
  C  C93  1  0.75059000  0.39419000  0.09968000  1.0
  C  C94  1  0.25060000  0.10583000  0.90031000  1.0
  C  C95  1  0.24940000  0.89418000  0.40031000  1.0
  C  C96  1  0.25060000  0.39417000  0.40030000  1.0
  C  C97  1  0.24941000  0.60582000  0.90030000  1.0
  C  C98  1  0.74940000  0.89418000  0.09971000  1.0
  C  C99  1  0.75059000  0.10582000  0.59968000  1.0
  C  C100  1  0.63629000  0.62809000  0.62988000  1.0
  C  C101  1  0.86370000  0.37192000  0.12986000  1.0
  C  C102  1  0.36370000  0.12808000  0.87013000  1.0
  C  C103  1  0.13630000  0.87191000  0.37013000  1.0
  C  C104  1  0.36370000  0.37191000  0.37013000  1.0
  C  C105  1  0.13631000  0.62810000  0.87012000  1.0
  C  C106  1  0.63630000  0.87192000  0.12989000  1.0
  C  C107  1  0.86370000  0.12810000  0.62986000  1.0
  C  C108  1  0.50227000  0.68005000  0.70458000  1.0
  C  C109  1  0.99771000  0.31996000  0.20457000  1.0
  C  C110  1  0.49771000  0.18005000  0.79543000  1.0
  C  C111  1  0.00229000  0.81995000  0.29543000  1.0
  C  C112  1  0.49771000  0.31995000  0.29542000  1.0
  C  C113  1  0.00230000  0.68005000  0.79541000  1.0
  C  C114  1  0.50230000  0.81995000  0.20460000  1.0
  C  C115  1  0.99771000  0.18005000  0.70457000  1.0
  C  C116  1  0.45788000  0.73375000  0.77388000  1.0
  C  C117  1  0.04210000  0.26624000  0.27387000  1.0
  C  C118  1  0.54212000  0.23374000  0.72613000  1.0
  C  C119  1  0.95790000  0.76623000  0.22613000  1.0
  C  C120  1  0.54211000  0.26624000  0.22612000  1.0
  C  C121  1  0.95790000  0.73377000  0.72612000  1.0
  C  C122  1  0.45790000  0.76623000  0.27389000  1.0
  C  C123  1  0.04210000  0.23376000  0.77387000  1.0
  C  C124  1  0.45699000  0.62223000  0.64307000  1.0
  C  C125  1  0.04300000  0.37775000  0.14305000  1.0
  C  C126  1  0.54300000  0.12224000  0.85694000  1.0
  C  C127  1  0.95700000  0.87775000  0.35694000  1.0
  C  C128  1  0.54300000  0.37774000  0.35693000  1.0
  C  C129  1  0.95701000  0.62226000  0.85693000  1.0
  C  C130  1  0.45700000  0.87774000  0.14309000  1.0
  C  C131  1  0.04300000  0.12226000  0.64305000  1.0
  C  C132  1  0.34522000  0.58282000  0.62397000  1.0
  C  C133  1  0.15477000  0.41717000  0.12396000  1.0
  C  C134  1  0.65477000  0.08282000  0.87605000  1.0
  C  C135  1  0.84523000  0.91718000  0.37603000  1.0
  C  C136  1  0.65477000  0.41718000  0.37603000  1.0
  C  C137  1  0.84524000  0.58283000  0.87602000  1.0
  C  C138  1  0.34523000  0.91717000  0.12399000  1.0
  C  C139  1  0.15477000  0.08283000  0.62397000  1.0
  N  N140  1  0.80185000  0.52789000  0.64844000  1.0
  N  N141  1  0.69814000  0.47212000  0.14843000  1.0
  N  N142  1  0.19814000  0.02790000  0.85155000  1.0
  N  N143  1  0.30185000  0.97211000  0.35156000  1.0
  N  N144  1  0.19814000  0.47210000  0.35156000  1.0
  N  N145  1  0.30186000  0.52788000  0.85156000  1.0
  N  N146  1  0.80186000  0.97211000  0.14846000  1.0
  N  N147  1  0.69814000  0.02790000  0.64843000  1.0
  N  N148  1  0.91326000  0.51376000  0.64727000  1.0
  N  N149  1  0.58673000  0.48627000  0.14726000  1.0
  N  N150  1  0.08673000  0.01376000  0.85272000  1.0
  N  N151  1  0.41327000  0.98625000  0.35274000  1.0
  N  N152  1  0.08673000  0.48624000  0.35273000  1.0
  N  N153  1  0.41327000  0.51374000  0.85274000  1.0
  N  N154  1  0.91328000  0.98625000  0.14729000  1.0
  N  N155  1  0.58673000  0.01375000  0.64725000  1.0
  N  N156  1  0.83108000  0.40411000  0.73113000  1.0
  N  N157  1  0.66892000  0.59588000  0.23114000  1.0
  N  N158  1  0.16892000  0.90413000  0.76885000  1.0
  N  N159  1  0.33108000  0.09588000  0.26886000  1.0
  N  N160  1  0.16892000  0.59588000  0.26886000  1.0
  N  N161  1  0.33108000  0.40411000  0.76886000  1.0
  N  N162  1  0.83108000  0.09589000  0.23115000  1.0
  N  N163  1  0.66891000  0.90413000  0.73114000  1.0
  N  N164  1  0.61518000  0.68158000  0.69532000  1.0
  N  N165  1  0.88480000  0.31842000  0.19530000  1.0
  N  N166  1  0.38481000  0.18158000  0.80469000  1.0
  N  N167  1  0.11519000  0.81841000  0.30469000  1.0
  N  N168  1  0.38480000  0.31841000  0.30468000  1.0
  N  N169  1  0.11521000  0.68159000  0.80468000  1.0
  N  N170  1  0.61521000  0.81842000  0.19534000  1.0
  N  N171  1  0.88480000  0.18159000  0.69530000  1.0
  N  N172  1  0.54390000  0.58989000  0.59730000  1.0
  N  N173  1  0.95609000  0.41011000  0.09728000  1.0
  N  N174  1  0.45609000  0.08990000  0.90272000  1.0
  N  N175  1  0.04391000  0.91010000  0.40271000  1.0
  N  N176  1  0.45610000  0.41010000  0.40270000  1.0
  N  N177  1  0.04392000  0.58991000  0.90271000  1.0
  N  N178  1  0.54391000  0.91010000  0.09731000  1.0
  N  N179  1  0.95609000  0.08991000  0.59728000  1.0
  O  O180  1  0.52956000  0.76035000  0.82582000  1.0
  O  O181  1  0.97043000  0.23965000  0.32581000  1.0
  O  O182  1  0.47045000  0.26033000  0.67418000  1.0
  O  O183  1  0.02958000  0.73963000  0.17419000  1.0
  O  O184  1  0.47044000  0.23965000  0.17418000  1.0
  O  O185  1  0.02958000  0.76037000  0.67418000  1.0
  O  O186  1  0.52957000  0.73964000  0.32584000  1.0
  O  O187  1  0.97043000  0.26036000  0.82581000  1.0
  O  O188  1  0.35593000  0.75580000  0.78018000  1.0
  O  O189  1  0.14405000  0.24417000  0.28016000  1.0
  O  O190  1  0.64407000  0.25578000  0.71983000  1.0
  O  O191  1  0.85595000  0.74417000  0.21983000  1.0
  O  O192  1  0.64406000  0.24420000  0.21981000  1.0
  O  O193  1  0.85595000  0.75581000  0.71981000  1.0
  O  O194  1  0.35595000  0.74417000  0.28019000  1.0
  O  O195  1  0.14405000  0.25583000  0.78016000  1.0
  O  O196  1  0.34279000  0.51076000  0.57231000  1.0
  O  O197  1  0.15721000  0.48922000  0.07230000  1.0
  O  O198  1  0.65720000  0.01076000  0.92770000  1.0
  O  O199  1  0.84279000  0.98923000  0.42768000  1.0
  O  O200  1  0.65721000  0.48923000  0.42769000  1.0
  O  O201  1  0.84280000  0.51078000  0.92768000  1.0
  O  O202  1  0.34279000  0.98921000  0.07233000  1.0
  O  O203  1  0.15721000  0.01078000  0.57231000  1.0
  O  O204  1  0.25928000  0.61598000  0.65749000  1.0
  O  O205  1  0.24070000  0.38402000  0.15749000  1.0
  O  O206  1  0.74071000  0.11599000  0.84253000  1.0
  O  O207  1  0.75929000  0.88403000  0.34250000  1.0
  O  O208  1  0.74071000  0.38403000  0.34250000  1.0
  O  O209  1  0.75931000  0.61598000  0.84249000  1.0
  O  O210  1  0.25931000  0.88402000  0.15753000  1.0
  O  O211  1  0.24071000  0.11596000  0.65750000  1.0
  O  O212  1  0.73381000  0.34142000  0.89301000  1.0
  O  O213  1  0.76619000  0.65858000  0.39304000  1.0
  O  O214  1  0.26621000  0.84142000  0.60697000  1.0
  O  O215  1  0.23382000  0.15859000  0.10697000  1.0
  O  O216  1  0.26620000  0.65858000  0.10699000  1.0
  O  O217  1  0.23381000  0.34140000  0.60697000  1.0
  O  O218  1  0.73380000  0.15859000  0.39301000  1.0
  O  O219  1  0.76619000  0.84141000  0.89302000  1.0
  O  O220  1  0.43362000  0.64591000  0.44480000  1.0
  O  O221  1  0.06637000  0.35408000  0.94478000  1.0
  O  O222  1  0.56637000  0.14591000  0.05521000  1.0
  O  O223  1  0.93361000  0.85408000  0.55520000  1.0
  O  O224  1  0.56637000  0.35406000  0.55521000  1.0
  O  O225  1  0.93362000  0.64595000  0.05519000  1.0
  O  O226  1  0.43362000  0.85406000  0.94481000  1.0
  O  O227  1  0.06637000  0.14593000  0.44479000  1.0
