# generated using pymatgen
data_Cd3H36C36Br6(N5O2)2
_symmetry_space_group_name_H-M   'P 1'
_cell_length_a   7.85568000
_cell_length_b   8.56242000
_cell_length_c   19.16020000
_cell_angle_alpha   98.28280000
_cell_angle_beta   91.56620000
_cell_angle_gamma   100.98700000
_symmetry_Int_Tables_number   1
_chemical_formula_structural   Cd3H36C36Br6(N5O2)2
_chemical_formula_sum   'Cd3 H36 C36 Br6 N10 O4'
_cell_volume   1249.97225633
_cell_formula_units_Z   1
loop_
 _symmetry_equiv_pos_site_id
 _symmetry_equiv_pos_as_xyz
  1  'x, y, z'
loop_
 _atom_site_type_symbol
 _atom_site_label
 _atom_site_symmetry_multiplicity
 _atom_site_fract_x
 _atom_site_fract_y
 _atom_site_fract_z
 _atom_site_occupancy
  Cd  Cd0  1  0.50000000  0.50000000  0.50000000  1.0
  Cd  Cd1  1  0.59709000  0.60549000  0.27289000  1.0
  Cd  Cd2  1  0.40291000  0.39450000  0.72711000  1.0
  H  H3  1  0.25088000  0.56960000  0.36055000  1.0
  H  H4  1  0.74912000  0.43039000  0.63945000  1.0
  H  H5  1  0.39755000  0.88114000  0.55352000  1.0
  H  H6  1  0.60245000  0.11886000  0.44648000  1.0
  H  H7  1  0.16584000  0.00439000  0.47713000  1.0
  H  H8  1  0.83416000  0.99562000  0.52286000  1.0
  H  H9  1  0.93135000  0.81826000  0.36476000  1.0
  H  H10  1  0.06865000  0.18174000  0.63523000  1.0
  H  H11  1  0.03955000  0.69574000  0.30610000  1.0
  H  H12  1  0.96045000  0.30426000  0.69390000  1.0
  H  H13  1  0.43074000  0.17319000  0.35722000  1.0
  H  H14  1  0.56926000  0.82680000  0.64278000  1.0
  H  H15  1  0.05630000  0.37126000  0.47558000  1.0
  H  H16  1  0.94370000  0.62874000  0.52442000  1.0
  H  H17  1  0.88807000  0.10782000  0.37901000  1.0
  H  H18  1  0.11193000  0.89217000  0.62099000  1.0
  H  H19  1  0.25222000  0.93659000  0.28358000  1.0
  H  H20  1  0.74778000  0.06341000  0.71642000  1.0
  H  H21  1  0.03125000  0.94636000  0.26245000  1.0
  H  H22  1  0.96875000  0.05364000  0.73755000  1.0
  H  H23  1  0.19594000  0.07646000  0.12482000  1.0
  H  H24  1  0.80407000  0.92354000  0.87518000  1.0
  H  H25  1  0.88751000  0.92496000  0.09322000  1.0
  H  H26  1  0.11250000  0.07503000  0.90679000  1.0
  H  H27  1  0.51917000  0.03542000  0.18223000  1.0
  H  H28  1  0.48083000  0.96458000  0.81777000  1.0
  H  H29  1  0.60905000  0.86152000  0.15294000  1.0
  H  H30  1  0.39095000  0.13848000  0.84705000  1.0
  H  H31  1  0.55136000  0.74246000  0.03415000  1.0
  H  H32  1  0.44864000  0.25756000  0.96585000  1.0
  H  H33  1  0.45917000  0.75344000  0.90968000  1.0
  H  H34  1  0.54084000  0.24657000  0.09032000  1.0
  H  H35  1  0.69030000  0.24155000  0.23948000  1.0
  H  H36  1  0.30969000  0.75845000  0.76052000  1.0
  H  H37  1  0.98717000  0.40687000  0.27484000  1.0
  H  H38  1  0.01282000  0.59313000  0.72516000  1.0
  C  C39  1  0.26077000  0.66827000  0.40376000  1.0
  C  C40  1  0.73923000  0.33173000  0.59624000  1.0
  C  C41  1  0.33329000  0.83272000  0.50212000  1.0
  C  C42  1  0.66666667  0.16728000  0.49788000  1.0
  C  C43  1  0.21983000  0.89703000  0.46453000  1.0
  C  C44  1  0.78018000  0.10297000  0.53547000  1.0
  C  C45  1  0.05839000  0.80686000  0.34428000  1.0
  C  C46  1  0.94161000  0.19314000  0.65572000  1.0
  C  C47  1  0.30845000  0.19392000  0.37780000  1.0
  C  C48  1  0.69155000  0.80607000  0.62220000  1.0
  C  C49  1  0.10982000  0.29131000  0.43696000  1.0
  C  C50  1  0.89018000  0.70868000  0.56304000  1.0
  C  C51  1  0.02447000  0.16206000  0.38979000  1.0
  C  C52  1  0.97553000  0.83793000  0.61021000  1.0
  C  C53  1  0.12689000  0.94809000  0.30553000  1.0
  C  C54  1  0.87311000  0.05191000  0.69447000  1.0
  C  C55  1  0.29782000  0.34702000  0.22255000  1.0
  C  C56  1  0.70218000  0.65298000  0.77745000  1.0
  C  C57  1  0.11487000  0.25517000  0.20170000  1.0
  C  C58  1  0.88513000  0.74484000  0.79830000  1.0
  C  C59  1  0.08653000  0.11741000  0.15010000  1.0
  C  C60  1  0.91347000  0.88259000  0.84990000  1.0
  C  C61  1  0.91943000  0.03321000  0.13223000  1.0
  C  C62  1  0.08057000  0.96679000  0.86777000  1.0
  C  C63  1  0.60552000  0.98549000  0.14508000  1.0
  C  C64  1  0.39448000  0.01451000  0.85492000  1.0
  C  C65  1  0.55168000  0.99350000  0.06991000  1.0
  C  C66  1  0.44833000  0.00652000  0.93010000  1.0
  C  C67  1  0.52839000  0.85518000  0.01895000  1.0
  C  C68  1  0.47162000  0.14484000  0.98105000  1.0
  C  C69  1  0.47691000  0.86129000  0.94931000  1.0
  C  C70  1  0.52310000  0.13873000  0.05069000  1.0
  C  C71  1  0.80665000  0.21163000  0.21581000  1.0
  C  C72  1  0.19335000  0.78837000  0.78419000  1.0
  C  C73  1  0.97198000  0.30180000  0.23425000  1.0
  C  C74  1  0.02802000  0.69820000  0.76575000  1.0
  Br  Br75  1  0.72066000  0.48169000  0.37785000  1.0
  Br  Br76  1  0.27934000  0.51829000  0.62215000  1.0
  Br  Br77  1  0.59938000  0.90978000  0.32036000  1.0
  Br  Br78  1  0.40062000  0.09021000  0.67964000  1.0
  Br  Br79  1  0.78171000  0.60661000  0.16157000  1.0
  Br  Br80  1  0.21828000  0.39338000  0.83843000  1.0
  N  N81  1  0.35717000  0.68987000  0.46390000  1.0
  N  N82  1  0.64283000  0.31013000  0.53610000  1.0
  N  N83  1  0.17507000  0.79122000  0.40207000  1.0
  N  N84  1  0.82493000  0.20878000  0.59793000  1.0
  N  N85  1  0.28658000  0.31007000  0.42889000  1.0
  N  N86  1  0.71342000  0.68993000  0.57111000  1.0
  N  N87  1  0.15232000  0.10147000  0.35263000  1.0
  N  N88  1  0.84768000  0.89853000  0.64737000  1.0
  N  N89  1  0.78314000  0.08121000  0.16515000  1.0
  N  N90  1  0.21685000  0.91879000  0.83486000  1.0
  O  O91  1  0.31071000  0.49459000  0.25080000  1.0
  O  O92  1  0.68929000  0.50541000  0.74921000  1.0
  O  O93  1  0.42069000  0.27407000  0.21134000  1.0
  O  O94  1  0.57930000  0.72593000  0.78866000  1.0
