# generated using pymatgen
data_MnH3C5N5O2
_symmetry_space_group_name_H-M   'P 1'
_cell_length_a   7.28984000
_cell_length_b   10.78210000
_cell_length_c   10.81090000
_cell_angle_alpha   90.00180000
_cell_angle_beta   89.99990000
_cell_angle_gamma   89.99910000
_symmetry_Int_Tables_number   1
_chemical_formula_structural   MnH3C5N5O2
_chemical_formula_sum   'Mn4 H12 C20 N20 O8'
_cell_volume   849.73440285
_cell_formula_units_Z   4
loop_
 _symmetry_equiv_pos_site_id
 _symmetry_equiv_pos_as_xyz
  1  'x, y, z'
loop_
 _atom_site_type_symbol
 _atom_site_label
 _atom_site_symmetry_multiplicity
 _atom_site_fract_x
 _atom_site_fract_y
 _atom_site_fract_z
 _atom_site_occupancy
  Mn  Mn0  1  0.34186000  0.21754000  0.94287000  1.0
  Mn  Mn1  1  0.15814000  0.71755000  0.05713000  1.0
  Mn  Mn2  1  0.65814000  0.28246000  0.44287000  1.0
  Mn  Mn3  1  0.84188000  0.78246000  0.55713000  1.0
  H  H4  1  0.04602000  0.02516000  0.10840000  1.0
  H  H5  1  0.45402000  0.52516000  0.89162000  1.0
  H  H6  1  0.95397000  0.47484000  0.60842000  1.0
  H  H7  1  0.54601000  0.97483000  0.39161000  1.0
  H  H8  1  0.97265000  0.43020000  0.30088000  1.0
  H  H9  1  0.52738000  0.93021000  0.69913000  1.0
  H  H10  1  0.02734000  0.06980000  0.80087000  1.0
  H  H11  1  0.47263000  0.56978000  0.19911000  1.0
  H  H12  1  0.85122000  0.05340000  0.30069000  1.0
  H  H13  1  0.64879000  0.55340000  0.69932000  1.0
  H  H14  1  0.14878000  0.44661000  0.80070000  1.0
  H  H15  1  0.35122000  0.94661000  0.19931000  1.0
  C  C16  1  0.09473000  0.32370000  0.15306000  1.0
  C  C17  1  0.40528000  0.82370000  0.84695000  1.0
  C  C18  1  0.90526000  0.17631000  0.65307000  1.0
  C  C19  1  0.59471000  0.67629000  0.34693000  1.0
  C  C20  1  0.19159000  0.43135000  0.09389000  1.0
  C  C21  1  0.30842000  0.93136000  0.90610000  1.0
  C  C22  1  0.80841000  0.06864000  0.59390000  1.0
  C  C23  1  0.69159000  0.56863000  0.40611000  1.0
  C  C24  1  0.02883000  0.11561000  0.15208000  1.0
  C  C25  1  0.47119000  0.61563000  0.84794000  1.0
  C  C26  1  0.97117000  0.38439000  0.65209000  1.0
  C  C27  1  0.52883000  0.88437000  0.34792000  1.0
  C  C28  1  0.98799000  0.33914000  0.25888000  1.0
  C  C29  1  0.51203000  0.83913000  0.74112000  1.0
  C  C30  1  0.01200000  0.16086000  0.75888000  1.0
  C  C31  1  0.48797000  0.66088000  0.24112000  1.0
  C  C32  1  0.92176000  0.13146000  0.25782000  1.0
  C  C33  1  0.57827000  0.63145000  0.74218000  1.0
  C  C34  1  0.07825000  0.36855000  0.75782000  1.0
  C  C35  1  0.42175000  0.86855000  0.24216000  1.0
  N  N36  1  0.11561000  0.21183000  0.09945000  1.0
  N  N37  1  0.38440000  0.71184000  0.90053000  1.0
  N  N38  1  0.88438000  0.28818000  0.59946000  1.0
  N  N39  1  0.61559000  0.78815000  0.40053000  1.0
  N  N40  1  0.52777000  0.16949000  0.08734000  1.0
  N  N41  1  0.97225000  0.66950000  0.91265000  1.0
  N  N42  1  0.47225000  0.33052000  0.58734000  1.0
  N  N43  1  0.02777000  0.83051000  0.41264000  1.0
  N  N44  1  0.50623000  0.19092000  0.19404000  1.0
  N  N45  1  0.99379000  0.69093000  0.80596000  1.0
  N  N46  1  0.49378000  0.30908000  0.69403000  1.0
  N  N47  1  0.00622000  0.80907000  0.30595000  1.0
  N  N48  1  0.90016000  0.24317000  0.31122000  1.0
  N  N49  1  0.59984000  0.74315000  0.68878000  1.0
  N  N50  1  0.09982000  0.25683000  0.81122000  1.0
  N  N51  1  0.40016000  0.75684000  0.18878000  1.0
  N  N52  1  0.48269000  0.20971000  0.30074000  1.0
  N  N53  1  0.01735000  0.70971000  0.69925000  1.0
  N  N54  1  0.51731000  0.29028000  0.80074000  1.0
  N  N55  1  0.98267000  0.79029000  0.19925000  1.0
  O  O56  1  0.30315000  0.40694000  0.00707000  1.0
  O  O57  1  0.19685000  0.90693000  0.99295000  1.0
  O  O58  1  0.69684000  0.09307000  0.50705000  1.0
  O  O59  1  0.80313000  0.59305000  0.49294000  1.0
  O  O60  1  0.15564000  0.53849000  0.13594000  1.0
  O  O61  1  0.34433000  0.03848000  0.86407000  1.0
  O  O62  1  0.84432000  0.96152000  0.63595000  1.0
  O  O63  1  0.65566000  0.46150000  0.36405000  1.0
