# generated using pymatgen
data_ZnH18C24(N2O3)2
_symmetry_space_group_name_H-M   'P 1'
_cell_length_a   9.98075000
_cell_length_b   10.32410000
_cell_length_c   11.78880000
_cell_angle_alpha   76.47620000
_cell_angle_beta   72.54850000
_cell_angle_gamma   86.98500000
_symmetry_Int_Tables_number   1
_chemical_formula_structural   ZnH18C24(N2O3)2
_chemical_formula_sum   'Zn2 H36 C48 N8 O12'
_cell_volume   1126.49890896
_cell_formula_units_Z   2
loop_
 _symmetry_equiv_pos_site_id
 _symmetry_equiv_pos_as_xyz
  1  'x, y, z'
loop_
 _atom_site_type_symbol
 _atom_site_label
 _atom_site_symmetry_multiplicity
 _atom_site_fract_x
 _atom_site_fract_y
 _atom_site_fract_z
 _atom_site_occupancy
  Zn  Zn0  1  0.64023000  0.15389000  0.14565000  1.0
  Zn  Zn1  1  0.35978000  0.84611000  0.85435000  1.0
  H  H2  1  0.68017000  0.51412000  0.00089000  1.0
  H  H3  1  0.31983000  0.48588000  0.99910000  1.0
  H  H4  1  0.43121000  0.28742000  0.06804000  1.0
  H  H5  1  0.56879000  0.71258000  0.93196000  1.0
  H  H6  1  0.44463000  0.15582000  0.01379000  1.0
  H  H7  1  0.55537000  0.84418000  0.98621000  1.0
  H  H8  1  0.66609000  0.65706000  0.12177000  1.0
  H  H9  1  0.33391000  0.34294000  0.87823000  1.0
  H  H10  1  0.40138000  0.38348000  0.43248000  1.0
  H  H11  1  0.59862000  0.61651000  0.56752000  1.0
  H  H12  1  0.36051000  0.80687000  0.40295000  1.0
  H  H13  1  0.63949000  0.19312000  0.59706000  1.0
  H  H14  1  0.13877000  0.52832000  0.76579000  1.0
  H  H15  1  0.86123000  0.47168000  0.23422000  1.0
  H  H16  1  0.91918000  0.49831000  0.94149000  1.0
  H  H17  1  0.08082000  0.50170000  0.05851000  1.0
  H  H18  1  0.67280000  0.24252000  0.86619000  1.0
  H  H19  1  0.32720000  0.75748000  0.13381000  1.0
  H  H20  1  0.68441000  0.69918000  0.70110000  1.0
  H  H21  1  0.31558000  0.30082000  0.29889000  1.0
  H  H22  1  0.90595000  0.72972000  0.52448000  1.0
  H  H23  1  0.09405000  0.27028000  0.47552000  1.0
  H  H24  1  0.17651000  0.11809000  0.05905000  1.0
  H  H25  1  0.82349000  0.88191000  0.94095000  1.0
  H  H26  1  0.87057000  0.29017000  0.66982000  1.0
  H  H27  1  0.12943000  0.70984000  0.33018000  1.0
  H  H28  1  0.15734000  0.18696000  0.88662000  1.0
  H  H29  1  0.84266000  0.81305000  0.11338000  1.0
  H  H30  1  0.11896000  0.26574000  0.68252000  1.0
  H  H31  1  0.88104000  0.73427000  0.31748000  1.0
  H  H32  1  0.17855000  0.04682000  0.27412000  1.0
  H  H33  1  0.82145000  0.95317000  0.72588000  1.0
  H  H34  1  0.72487000  0.06600000  0.38477000  1.0
  H  H35  1  0.27513000  0.93399000  0.61523000  1.0
  H  H36  1  0.94692000  0.01881000  0.44268000  1.0
  H  H37  1  0.05308000  0.98119000  0.55732000  1.0
  C  C38  1  0.58247000  0.63897000  0.20797000  1.0
  C  C39  1  0.41753000  0.36103000  0.79203000  1.0
  C  C40  1  0.51989000  0.74686000  0.25573000  1.0
  C  C41  1  0.48011000  0.25314000  0.74427000  1.0
  C  C42  1  0.60360000  0.39489000  0.21316000  1.0
  C  C43  1  0.39640000  0.60511000  0.78684000  1.0
  C  C44  1  0.54031000  0.50778000  0.27041000  1.0
  C  C45  1  0.45969000  0.49221000  0.72959000  1.0
  C  C46  1  0.36534000  0.59260000  0.42634000  1.0
  C  C47  1  0.63466000  0.40740000  0.57366000  1.0
  C  C48  1  0.56873000  0.88641000  0.18765000  1.0
  C  C49  1  0.43127000  0.11359000  0.81235000  1.0
  C  C50  1  0.43397000  0.48484000  0.38183000  1.0
  C  C51  1  0.56603000  0.51516000  0.61817000  1.0
  C  C52  1  0.41056000  0.72361000  0.36525000  1.0
  C  C53  1  0.58944000  0.27638000  0.63475000  1.0
  C  C54  1  0.03877000  0.56282000  0.75174000  1.0
  C  C55  1  0.96122000  0.43718000  0.24826000  1.0
  C  C56  1  0.91733000  0.54706000  0.84940000  1.0
  C  C57  1  0.08267000  0.45294000  0.15060000  1.0
  C  C58  1  0.93528000  0.17598000  0.98354000  1.0
  C  C59  1  0.06472000  0.82403000  0.01646000  1.0
  C  C60  1  0.03400000  0.62592000  0.63352000  1.0
  C  C61  1  0.96600000  0.37408000  0.36648000  1.0
  C  C62  1  0.78869000  0.59200000  0.82962000  1.0
  C  C63  1  0.21131000  0.40800000  0.17038000  1.0
  C  C64  1  0.94883000  0.13220000  0.10856000  1.0
  C  C65  1  0.05117000  0.86780000  0.89144000  1.0
  C  C66  1  0.78206000  0.23102000  0.86579000  1.0
  C  C67  1  0.21794000  0.76898000  0.13421000  1.0
  C  C68  1  0.78429000  0.66058000  0.71290000  1.0
  C  C69  1  0.21571000  0.33942000  0.28710000  1.0
  C  C70  1  0.90662000  0.67774000  0.61620000  1.0
  C  C71  1  0.09338000  0.32226000  0.38380000  1.0
  C  C72  1  0.07807000  0.10775000  0.13278000  1.0
  C  C73  1  0.92193000  0.89225000  0.86722000  1.0
  C  C74  1  0.89233000  0.25807000  0.75751000  1.0
  C  C75  1  0.10767000  0.74193000  0.24249000  1.0
  C  C76  1  0.05145000  0.20086000  0.87869000  1.0
  C  C77  1  0.94856000  0.79914000  0.12131000  1.0
  C  C78  1  0.02941000  0.24315000  0.76470000  1.0
  C  C79  1  0.97059000  0.75686000  0.23530000  1.0
  C  C80  1  0.07887000  0.06612000  0.25373000  1.0
  C  C81  1  0.92113000  0.93388000  0.74627000  1.0
  C  C82  1  0.82745000  0.07646000  0.31587000  1.0
  C  C83  1  0.17255000  0.92354000  0.68413000  1.0
  C  C84  1  0.95163000  0.05027000  0.34687000  1.0
  C  C85  1  0.04837000  0.94973000  0.65313000  1.0
  N  N86  1  0.80277000  0.19125000  0.97582000  1.0
  N  N87  1  0.19724000  0.80875000  0.02418000  1.0
  N  N88  1  0.24946000  0.56304000  0.53315000  1.0
  N  N89  1  0.75053000  0.43696000  0.46685000  1.0
  N  N90  1  0.15007000  0.64447000  0.52887000  1.0
  N  N91  1  0.84993000  0.35553000  0.47113000  1.0
  N  N92  1  0.82680000  0.11629000  0.19963000  1.0
  N  N93  1  0.17320000  0.88371000  0.80037000  1.0
  O  O94  1  0.55595000  0.27682000  0.26698000  1.0
  O  O95  1  0.44405000  0.72318000  0.73302000  1.0
  O  O96  1  0.62315000  0.91050000  0.07239000  1.0
  O  O97  1  0.37685000  0.08949000  0.92761000  1.0
  O  O98  1  0.66629000  0.57299000  0.92141000  1.0
  O  O99  1  0.33371000  0.42701000  0.07858000  1.0
  O  O100  1  0.55420000  0.97402000  0.25098000  1.0
  O  O101  1  0.44580000  0.02598000  0.74902000  1.0
  O  O102  1  0.70020000  0.42003000  0.11118000  1.0
  O  O103  1  0.29980000  0.57996000  0.88882000  1.0
  O  O104  1  0.47924000  0.20116000  0.06649000  1.0
  O  O105  1  0.52076000  0.79884000  0.93351000  1.0
