# generated using pymatgen
data_AlH11C16N4O7
_symmetry_space_group_name_H-M   'P 1'
_cell_length_a   6.77517000
_cell_length_b   19.85710000
_cell_length_c   23.90480000
_cell_angle_alpha   90.00000000
_cell_angle_beta   90.00110000
_cell_angle_gamma   89.99690000
_symmetry_Int_Tables_number   1
_chemical_formula_structural   AlH11C16N4O7
_chemical_formula_sum   'Al4 H44 C64 N16 O28'
_cell_volume   3216.03771794
_cell_formula_units_Z   4
loop_
 _symmetry_equiv_pos_site_id
 _symmetry_equiv_pos_as_xyz
  1  'x, y, z'
loop_
 _atom_site_type_symbol
 _atom_site_label
 _atom_site_symmetry_multiplicity
 _atom_site_fract_x
 _atom_site_fract_y
 _atom_site_fract_z
 _atom_site_occupancy
  Al  Al0  1  0.86148000  0.75042000  0.75041000  1.0
  Al  Al1  1  0.13851000  0.24959000  0.25041000  1.0
  Al  Al2  1  0.36149000  0.74958000  0.74959000  1.0
  Al  Al3  1  0.63851000  0.25043000  0.24959000  1.0
  H  H4  1  0.27544000  0.59966000  0.42510000  1.0
  H  H5  1  0.28065000  0.63024000  0.49026000  1.0
  H  H6  1  0.79461000  0.38731000  0.59034000  1.0
  H  H7  1  0.66684000  0.37827000  0.53063000  1.0
  H  H8  1  0.72454000  0.40035000  0.92510000  1.0
  H  H9  1  0.71935000  0.36976000  0.99025000  1.0
  H  H10  1  0.20541000  0.61268000  0.09034000  1.0
  H  H11  1  0.33317000  0.62173000  0.03063000  1.0
  H  H12  1  0.77540000  0.90033000  0.07491000  1.0
  H  H13  1  0.78070000  0.86977000  0.00975000  1.0
  H  H14  1  0.29457000  0.11269000  0.90966000  1.0
  H  H15  1  0.16678000  0.12173000  0.96937000  1.0
  H  H16  1  0.22472000  0.09971000  0.57491000  1.0
  H  H17  1  0.21928000  0.13024000  0.50974000  1.0
  H  H18  1  0.70544000  0.88731000  0.40967000  1.0
  H  H19  1  0.83321000  0.87828000  0.46938000  1.0
  H  H20  1  0.80300000  0.60584000  0.41274000  1.0
  H  H21  1  0.79188000  0.53124000  0.38119000  1.0
  H  H22  1  0.37070000  0.44543000  0.57816000  1.0
  H  H23  1  0.18600000  0.44724000  0.62301000  1.0
  H  H24  1  0.19702000  0.39415000  0.91275000  1.0
  H  H25  1  0.20811000  0.46875000  0.88119000  1.0
  H  H26  1  0.62928000  0.55461000  0.07812000  1.0
  H  H27  1  0.81387000  0.55271000  0.12300000  1.0
  H  H28  1  0.30302000  0.89416000  0.08726000  1.0
  H  H29  1  0.29192000  0.96876000  0.11881000  1.0
  H  H30  1  0.87064000  0.05455000  0.92183000  1.0
  H  H31  1  0.68591000  0.05276000  0.87699000  1.0
  H  H32  1  0.69700000  0.10584000  0.58726000  1.0
  H  H33  1  0.70808000  0.03125000  0.61881000  1.0
  H  H34  1  0.12939000  0.94553000  0.42175000  1.0
  H  H35  1  0.31432000  0.94714000  0.37698000  1.0
  H  H36  1  0.32864000  0.41940000  0.41304000  1.0
  H  H37  1  0.52842000  0.57171000  0.52991000  1.0
  H  H38  1  0.67136000  0.58062000  0.91304000  1.0
  H  H39  1  0.47160000  0.42829000  0.02992000  1.0
  H  H40  1  0.82864000  0.08059000  0.08696000  1.0
  H  H41  1  0.02842000  0.92829000  0.97011000  1.0
  H  H42  1  0.17132000  0.91947000  0.58697000  1.0
  H  H43  1  0.97157000  0.07170000  0.47012000  1.0
  H  H44  1  0.61327000  0.66702000  0.72743000  1.0
  H  H45  1  0.38674000  0.33299000  0.22742000  1.0
  H  H46  1  0.11324000  0.83298000  0.77258000  1.0
  H  H47  1  0.88677000  0.16702000  0.27258000  1.0
  C  C48  1  0.61205000  0.83015000  0.67430000  1.0
  C  C49  1  0.38922000  0.17304000  0.32742000  1.0
  C  C50  1  0.38795000  0.16984000  0.17431000  1.0
  C  C51  1  0.61076000  0.82697000  0.82742000  1.0
  C  C52  1  0.11209000  0.66984000  0.82569000  1.0
  C  C53  1  0.88923000  0.32697000  0.17257000  1.0
  C  C54  1  0.88790000  0.33017000  0.32568000  1.0
  C  C55  1  0.11079000  0.67302000  0.67258000  1.0
  C  C56  1  0.88214000  0.52732000  0.46198000  1.0
  C  C57  1  0.10651000  0.46612000  0.54320000  1.0
  C  C58  1  0.11786000  0.47268000  0.96198000  1.0
  C  C59  1  0.89351000  0.53387000  0.04320000  1.0
  C  C60  1  0.38215000  0.97268000  0.03803000  1.0
  C  C61  1  0.60647000  0.03387000  0.95680000  1.0
  C  C62  1  0.61783000  0.02732000  0.53803000  1.0
  C  C63  1  0.39350000  0.96613000  0.45679000  1.0
  C  C64  1  0.09708000  0.54989000  0.48072000  1.0
  C  C65  1  0.89215000  0.44368000  0.52563000  1.0
  C  C66  1  0.90293000  0.45011000  0.98072000  1.0
  C  C67  1  0.10787000  0.55632000  0.02562000  1.0
  C  C68  1  0.59708000  0.95011000  0.01928000  1.0
  C  C69  1  0.39212000  0.05632000  0.97438000  1.0
  C  C70  1  0.40291000  0.04990000  0.51928000  1.0
  C  C71  1  0.60785000  0.94368000  0.47437000  1.0
  C  C72  1  0.10251000  0.62832000  0.62541000  1.0
  C  C73  1  0.89179000  0.37238000  0.37485000  1.0
  C  C74  1  0.89750000  0.37167000  0.12540000  1.0
  C  C75  1  0.10822000  0.62763000  0.87485000  1.0
  C  C76  1  0.60249000  0.87167000  0.87460000  1.0
  C  C77  1  0.39181000  0.12764000  0.12515000  1.0
  C  C78  1  0.39751000  0.12834000  0.37459000  1.0
  C  C79  1  0.60815000  0.87235000  0.62515000  1.0
  C  C80  1  0.81973000  0.52189000  0.52490000  1.0
  C  C81  1  0.16441000  0.47012000  0.48011000  1.0
  C  C82  1  0.18027000  0.47811000  0.02490000  1.0
  C  C83  1  0.83561000  0.52987000  0.98011000  1.0
  C  C84  1  0.31972000  0.97811000  0.97511000  1.0
  C  C85  1  0.66439000  0.02987000  0.01989000  1.0
  C  C86  1  0.68027000  0.02189000  0.47511000  1.0
  C  C87  1  0.33557000  0.97014000  0.51988000  1.0
  C  C88  1  0.03447000  0.54367000  0.54343000  1.0
  C  C89  1  0.94903000  0.45122000  0.46164000  1.0
  C  C90  1  0.96554000  0.45632000  0.04342000  1.0
  C  C91  1  0.05097000  0.54877000  0.96164000  1.0
  C  C92  1  0.53445000  0.95632000  0.95658000  1.0
  C  C93  1  0.44902000  0.04878000  0.03836000  1.0
  C  C94  1  0.46554000  0.04368000  0.45657000  1.0
  C  C95  1  0.55094000  0.95122000  0.53836000  1.0
  C  C96  1  0.07542000  0.59027000  0.58614000  1.0
  C  C97  1  0.91048000  0.40715000  0.41648000  1.0
  C  C98  1  0.92459000  0.40972000  0.08614000  1.0
  C  C99  1  0.08952000  0.59284000  0.91649000  1.0
  C  C100  1  0.57541000  0.90972000  0.91386000  1.0
  C  C101  1  0.41048000  0.09285000  0.08352000  1.0
  C  C102  1  0.42459000  0.09028000  0.41386000  1.0
  C  C103  1  0.58948000  0.90715000  0.58351000  1.0
  C  C104  1  0.34265000  0.44239000  0.45536000  1.0
  C  C105  1  0.63979000  0.54247000  0.55417000  1.0
  C  C106  1  0.65736000  0.55762000  0.95537000  1.0
  C  C107  1  0.36022000  0.45753000  0.05417000  1.0
  C  C108  1  0.84264000  0.05760000  0.04463000  1.0
  C  C109  1  0.13977000  0.95752000  0.94584000  1.0
  C  C110  1  0.15732000  0.94242000  0.54463000  1.0
  C  C111  1  0.86023000  0.04246000  0.44585000  1.0
  N  N112  1  0.19647000  0.60675000  0.46083000  1.0
  N  N113  1  0.80260000  0.38641000  0.54777000  1.0
  N  N114  1  0.80352000  0.39326000  0.96083000  1.0
  N  N115  1  0.19742000  0.61358000  0.04777000  1.0
  N  N116  1  0.69647000  0.89325000  0.03917000  1.0
  N  N117  1  0.30255000  0.11359000  0.95223000  1.0
  N  N118  1  0.30357000  0.10677000  0.53916000  1.0
  N  N119  1  0.69743000  0.88641000  0.45223000  1.0
  N  N120  1  0.76920000  0.55612000  0.41803000  1.0
  N  N121  1  0.22484000  0.43389000  0.58325000  1.0
  N  N122  1  0.23080000  0.44387000  0.91803000  1.0
  N  N123  1  0.77516000  0.56610000  0.08325000  1.0
  N  N124  1  0.26923000  0.94388000  0.08197000  1.0
  N  N125  1  0.72478000  0.06610000  0.91674000  1.0
  N  N126  1  0.73076000  0.05612000  0.58197000  1.0
  N  N127  1  0.27523000  0.93389000  0.41674000  1.0
  O  O128  1  0.44380000  0.80931000  0.80769000  1.0
  O  O129  1  0.55691000  0.18648000  0.19327000  1.0
  O  O130  1  0.55617000  0.19068000  0.30768000  1.0
  O  O131  1  0.44310000  0.81353000  0.69327000  1.0
  O  O132  1  0.94381000  0.69068000  0.69231000  1.0
  O  O133  1  0.05683000  0.31357000  0.30670000  1.0
  O  O134  1  0.05620000  0.30929000  0.19229000  1.0
  O  O135  1  0.94315000  0.68646000  0.80672000  1.0
  O  O136  1  0.78078000  0.81465000  0.69394000  1.0
  O  O137  1  0.21979000  0.19030000  0.30927000  1.0
  O  O138  1  0.21923000  0.18532000  0.19396000  1.0
  O  O139  1  0.78018000  0.80973000  0.80925000  1.0
  O  O140  1  0.28083000  0.68534000  0.80606000  1.0
  O  O141  1  0.71982000  0.30975000  0.19076000  1.0
  O  O142  1  0.71915000  0.31466000  0.30606000  1.0
  O  O143  1  0.28019000  0.69025000  0.69076000  1.0
  O  O144  1  0.61189000  0.70922000  0.74792000  1.0
  O  O145  1  0.38811000  0.29078000  0.24791000  1.0
  O  O146  1  0.11188000  0.79077000  0.75209000  1.0
  O  O147  1  0.88812000  0.20923000  0.25209000  1.0
  O  O148  1  0.50462000  0.44416000  0.47915000  1.0
  O  O149  1  0.60945000  0.52712000  0.60340000  1.0
  O  O150  1  0.49540000  0.55584000  0.97915000  1.0
  O  O151  1  0.39054000  0.47287000  0.10340000  1.0
  O  O152  1  0.00460000  0.05583000  0.02084000  1.0
  O  O153  1  0.10940000  0.97287000  0.89662000  1.0
  O  O154  1  0.99535000  0.94419000  0.52085000  1.0
  O  O155  1  0.89061000  0.02711000  0.39662000  1.0
