# generated using pymatgen
data_AgH15C13(NO)3
_symmetry_space_group_name_H-M   'P 1'
_cell_length_a   8.66917000
_cell_length_b   9.40300000
_cell_length_c   17.69008613
_cell_angle_alpha   90.00000000
_cell_angle_beta   104.09209254
_cell_angle_gamma   90.00000000
_symmetry_Int_Tables_number   1
_chemical_formula_structural   AgH15C13(NO)3
_chemical_formula_sum   'Ag4 H60 C52 N12 O12'
_cell_volume   1398.63174805
_cell_formula_units_Z   4
loop_
 _symmetry_equiv_pos_site_id
 _symmetry_equiv_pos_as_xyz
  1  'x, y, z'
loop_
 _atom_site_type_symbol
 _atom_site_label
 _atom_site_symmetry_multiplicity
 _atom_site_fract_x
 _atom_site_fract_y
 _atom_site_fract_z
 _atom_site_occupancy
  Ag  Ag0  1  0.80224000  0.43555000  0.19022000  1.0
  Ag  Ag1  1  0.69776000  0.93555000  0.30978000  1.0
  Ag  Ag2  1  0.19776000  0.56445000  0.80978000  1.0
  Ag  Ag3  1  0.30224000  0.06445000  0.69022000  1.0
  H  H4  1  0.13581000  0.60408000  0.03082000  1.0
  H  H5  1  0.36419000  0.10408000  0.46918000  1.0
  H  H6  1  0.86419000  0.39592000  0.96918000  1.0
  H  H7  1  0.63581000  0.89592000  0.53082000  1.0
  H  H8  1  0.88412000  0.72661000  0.02142000  1.0
  H  H9  1  0.61588000  0.22661000  0.47858000  1.0
  H  H10  1  0.11588000  0.27339000  0.97858000  1.0
  H  H11  1  0.38412000  0.77339000  0.52142000  1.0
  H  H12  1  0.80306000  0.57865000  0.05979000  1.0
  H  H13  1  0.69694000  0.07865000  0.44021000  1.0
  H  H14  1  0.19694000  0.42135000  0.94021000  1.0
  H  H15  1  0.30306000  0.92135000  0.55979000  1.0
  H  H16  1  0.07897000  0.76773000  0.14676000  1.0
  H  H17  1  0.42103000  0.26773000  0.35324000  1.0
  H  H18  1  0.92103000  0.23227000  0.85324000  1.0
  H  H19  1  0.57897000  0.73227000  0.64676000  1.0
  H  H20  1  0.88310000  0.76318000  0.16084000  1.0
  H  H21  1  0.61689000  0.26318000  0.33916000  1.0
  H  H22  1  0.11689000  0.23682000  0.83916000  1.0
  H  H23  1  0.38310000  0.73682000  0.66084000  1.0
  H  H24  1  0.35351000  0.55951000  0.37808000  1.0
  H  H25  1  0.14649000  0.05951000  0.12192000  1.0
  H  H26  1  0.64649000  0.44049000  0.62192000  1.0
  H  H27  1  0.85351000  0.94049000  0.87808000  1.0
  H  H28  1  0.84554000  0.50879000  0.33057000  1.0
  H  H29  1  0.65445000  0.00879000  0.16943000  1.0
  H  H30  1  0.15445000  0.49121000  0.66943000  1.0
  H  H31  1  0.34554000  0.99121000  0.83057000  1.0
  H  H32  1  0.18944000  0.41912000  0.22962000  1.0
  H  H33  1  0.31056000  0.91912000  0.27038000  1.0
  H  H34  1  0.81056000  0.58088000  0.77038000  1.0
  H  H35  1  0.68944000  0.08088000  0.72962000  1.0
  H  H36  1  0.25536000  0.57212000  0.18775000  1.0
  H  H37  1  0.24464000  0.07213000  0.31225000  1.0
  H  H38  1  0.74464000  0.42788000  0.81225000  1.0
  H  H39  1  0.75536000  0.92788000  0.68775000  1.0
  H  H40  1  0.87666000  0.33205000  0.43721000  1.0
  H  H41  1  0.62334000  0.83205000  0.06279000  1.0
  H  H42  1  0.12334000  0.66795000  0.56279000  1.0
  H  H43  1  0.37666000  0.16795000  0.93721000  1.0
  H  H44  1  0.98414000  0.72834000  0.28702000  1.0
  H  H45  1  0.51586000  0.22834000  0.21298000  1.0
  H  H46  1  0.01586000  0.27166000  0.71298000  1.0
  H  H47  1  0.48414000  0.77166000  0.78702000  1.0
  H  H48  1  0.18734000  0.70809000  0.28447000  1.0
  H  H49  1  0.31265000  0.20809000  0.21553000  1.0
  H  H50  1  0.81265000  0.29191000  0.71553000  1.0
  H  H51  1  0.68735000  0.79191000  0.78447000  1.0
  H  H52  1  0.01088000  0.35054000  0.10637000  1.0
  H  H53  1  0.48911000  0.85054000  0.39363000  1.0
  H  H54  1  0.98912000  0.64946000  0.89363000  1.0
  H  H55  1  0.51088000  0.14946000  0.60637000  1.0
  H  H56  1  0.20520000  0.37547000  0.09370000  1.0
  H  H57  1  0.29480000  0.87547000  0.40630000  1.0
  H  H58  1  0.79480000  0.62453000  0.90630000  1.0
  H  H59  1  0.70520000  0.12453000  0.59370000  1.0
  H  H60  1  0.38625000  0.38848000  0.48971000  1.0
  H  H61  1  0.11375000  0.88848000  0.01029000  1.0
  H  H62  1  0.61375000  0.61152000  0.51029000  1.0
  H  H63  1  0.88625000  0.11152000  0.98971000  1.0
  C  C64  1  0.03558000  0.53802000  0.03894000  1.0
  C  C65  1  0.46442000  0.03802000  0.46106000  1.0
  C  C66  1  0.96442000  0.46198000  0.96106000  1.0
  C  C67  1  0.53558000  0.96198000  0.53894000  1.0
  C  C68  1  0.91467000  0.63739000  0.06265000  1.0
  C  C69  1  0.58533000  0.13739000  0.43735000  1.0
  C  C70  1  0.08533000  0.36261000  0.93735000  1.0
  C  C71  1  0.41467000  0.86261000  0.56265000  1.0
  C  C72  1  0.97468000  0.69829000  0.14424000  1.0
  C  C73  1  0.52532000  0.19829000  0.35576000  1.0
  C  C74  1  0.02532000  0.30171000  0.85576000  1.0
  C  C75  1  0.47468000  0.80171000  0.64424000  1.0
  C  C76  1  0.24982000  0.51101000  0.39257000  1.0
  C  C77  1  0.25018000  0.01101000  0.10743000  1.0
  C  C78  1  0.75018000  0.48899000  0.60743000  1.0
  C  C79  1  0.74982000  0.98899000  0.89257000  1.0
  C  C80  1  0.09770000  0.54494000  0.34715000  1.0
  C  C81  1  0.40230000  0.04494000  0.15285000  1.0
  C  C82  1  0.90230000  0.45506000  0.65285000  1.0
  C  C83  1  0.59770000  0.95506000  0.84715000  1.0
  C  C84  1  0.96434000  0.48043000  0.36437000  1.0
  C  C85  1  0.53566000  0.98043000  0.13563000  1.0
  C  C86  1  0.03566000  0.51957000  0.63563000  1.0
  C  C87  1  0.46434000  0.01957000  0.86437000  1.0
  C  C88  1  0.15256000  0.50080000  0.18454000  1.0
  C  C89  1  0.34744000  0.00080000  0.31546000  1.0
  C  C90  1  0.84744000  0.49920000  0.81546000  1.0
  C  C91  1  0.65256000  0.99920000  0.68454000  1.0
  C  C92  1  0.13345000  0.34950000  0.46984000  1.0
  C  C93  1  0.36656000  0.84950000  0.03016000  1.0
  C  C94  1  0.86656000  0.65050000  0.53016000  1.0
  C  C95  1  0.63344000  0.15050000  0.96984000  1.0
  C  C96  1  0.98059000  0.38217000  0.42431000  1.0
  C  C97  1  0.51941000  0.88217000  0.07569000  1.0
  C  C98  1  0.01941000  0.61783000  0.57569000  1.0
  C  C99  1  0.48059000  0.11783000  0.92431000  1.0
  C  C100  1  0.07512000  0.65052000  0.28135000  1.0
  C  C101  1  0.42488000  0.15052000  0.21865000  1.0
  C  C102  1  0.92488000  0.34947000  0.71865000  1.0
  C  C103  1  0.57512000  0.84948000  0.78135000  1.0
  C  C104  1  0.10157000  0.43173000  0.10464000  1.0
  C  C105  1  0.39843000  0.93173000  0.39536000  1.0
  C  C106  1  0.89843000  0.56827000  0.89536000  1.0
  C  C107  1  0.60157000  0.06827000  0.60464000  1.0
  C  C108  1  0.26843000  0.41481000  0.45406000  1.0
  C  C109  1  0.23157000  0.91481000  0.04594000  1.0
  C  C110  1  0.73157000  0.58519000  0.54594000  1.0
  C  C111  1  0.76843000  0.08519000  0.95406000  1.0
  C  C112  1  0.14939000  0.25260000  0.53272000  1.0
  C  C113  1  0.35062000  0.75260000  0.96728000  1.0
  C  C114  1  0.85062000  0.74740000  0.46728000  1.0
  C  C115  1  0.64938000  0.24740000  0.03272000  1.0
  N  N116  1  0.02106000  0.58390000  0.20307000  1.0
  N  N117  1  0.47893000  0.08390000  0.29693000  1.0
  N  N118  1  0.97893000  0.41610000  0.79693000  1.0
  N  N119  1  0.52107000  0.91610000  0.70307000  1.0
  N  N120  1  0.57861000  0.62395000  0.26013000  1.0
  N  N121  1  0.92139000  0.12395000  0.23987000  1.0
  N  N122  1  0.42139000  0.37605000  0.73987000  1.0
  N  N123  1  0.07861000  0.87605000  0.76013000  1.0
  N  N124  1  0.16115000  0.17334000  0.58469000  1.0
  N  N125  1  0.33885000  0.67334000  0.91531000  1.0
  N  N126  1  0.83885000  0.82666000  0.41531000  1.0
  N  N127  1  0.66115000  0.32666000  0.08469000  1.0
  O  O128  1  0.57247000  0.49016000  0.24822000  1.0
  O  O129  1  0.92753000  0.99016000  0.25178000  1.0
  O  O130  1  0.42753000  0.50984000  0.75178000  1.0
  O  O131  1  0.07247000  0.00984000  0.74822000  1.0
  O  O132  1  0.68182000  0.69797000  0.23685000  1.0
  O  O133  1  0.81818000  0.19797000  0.26315000  1.0
  O  O134  1  0.31818000  0.30203000  0.76315000  1.0
  O  O135  1  0.18182000  0.80203000  0.73685000  1.0
  O  O136  1  0.48524000  0.68237000  0.29513000  1.0
  O  O137  1  0.01476000  0.18237000  0.20487000  1.0
  O  O138  1  0.51476000  0.31763000  0.70487000  1.0
  O  O139  1  0.98524000  0.81763000  0.79513000  1.0
