# generated using pymatgen
data_MnH28C46(N4O3)2
_symmetry_space_group_name_H-M   'P 1'
_cell_length_a   9.06605000
_cell_length_b   10.35300000
_cell_length_c   11.02925850
_cell_angle_alpha   62.12900538
_cell_angle_beta   88.71984245
_cell_angle_gamma   76.24430000
_symmetry_Int_Tables_number   1
_chemical_formula_structural   MnH28C46(N4O3)2
_chemical_formula_sum   'Mn1 H28 C46 N8 O6'
_cell_volume   884.11707098
_cell_formula_units_Z   1
loop_
 _symmetry_equiv_pos_site_id
 _symmetry_equiv_pos_as_xyz
  1  'x, y, z'
loop_
 _atom_site_type_symbol
 _atom_site_label
 _atom_site_symmetry_multiplicity
 _atom_site_fract_x
 _atom_site_fract_y
 _atom_site_fract_z
 _atom_site_occupancy
  Mn  Mn0  1  0.00000000  0.50000000  0.50000000  1.0
  H  H1  1  0.68745000  0.71235000  0.51674000  1.0
  H  H2  1  0.31254000  0.28765000  0.48326000  1.0
  H  H3  1  0.47223000  0.90085000  0.34410000  1.0
  H  H4  1  0.52777000  0.09915000  0.65590000  1.0
  H  H5  1  0.44197000  0.90560000  0.11528000  1.0
  H  H6  1  0.55802000  0.09441000  0.88471000  1.0
  H  H7  1  0.31228000  0.92915000  0.75845000  1.0
  H  H8  1  0.68772000  0.07086000  0.24155000  1.0
  H  H9  1  0.12248000  0.00047000  0.56317000  1.0
  H  H10  1  0.87752000  0.99954000  0.43683000  1.0
  H  H11  1  0.37084000  0.61660000  0.52119000  1.0
  H  H12  1  0.62916000  0.38340000  0.47881000  1.0
  H  H13  1  0.55378000  0.54013000  0.72042000  1.0
  H  H14  1  0.44622000  0.45987000  0.27958000  1.0
  H  H15  1  0.94710000  0.31743000  0.06566000  1.0
  H  H16  1  0.05290000  0.68257000  0.93434000  1.0
  H  H17  1  0.13960000  0.14728000  0.27190000  1.0
  H  H18  1  0.86039000  0.85272000  0.72810000  1.0
  H  H19  1  0.87207000  0.90518000  0.21467000  1.0
  H  H20  1  0.12794000  0.09481000  0.78533000  1.0
  H  H21  1  0.15696000  0.21506000  0.45695000  1.0
  H  H22  1  0.84304000  0.78494000  0.54305000  1.0
  H  H23  1  0.23985000  0.83641000  0.97998000  1.0
  H  H24  1  0.76015000  0.16358000  0.02002000  1.0
  H  H25  1  0.72344000  0.50286000  0.89027000  1.0
  H  H26  1  0.27656000  0.49713000  0.10973000  1.0
  H  H27  1  0.12875000  0.78737000  0.39136000  1.0
  H  H28  1  0.87125000  0.21263000  0.60864000  1.0
  C  C29  1  0.67842000  0.72107000  0.41507000  1.0
  C  C30  1  0.32158000  0.27894000  0.58492000  1.0
  C  C31  1  0.55444000  0.82455000  0.31811000  1.0
  C  C32  1  0.44556000  0.17546000  0.68188000  1.0
  C  C33  1  0.53730000  0.82683000  0.19258000  1.0
  C  C34  1  0.46269000  0.17317000  0.80742000  1.0
  C  C35  1  0.64352000  0.72011000  0.16832000  1.0
  C  C36  1  0.35648000  0.27989000  0.83168000  1.0
  C  C37  1  0.76901000  0.62265000  0.26935000  1.0
  C  C38  1  0.23099000  0.37736000  0.73064000  1.0
  C  C39  1  0.87539000  0.50415000  0.25686000  1.0
  C  C40  1  0.12461000  0.49585000  0.74314000  1.0
  C  C41  1  0.85757000  0.47405000  0.14505000  1.0
  C  C42  1  0.14243000  0.52595000  0.85495000  1.0
  C  C43  1  0.73192000  0.57442000  0.04414000  1.0
  C  C44  1  0.26808000  0.42558000  0.95586000  1.0
  C  C45  1  0.63019000  0.69484000  0.05280000  1.0
  C  C46  1  0.36982000  0.30516000  0.94720000  1.0
  C  C47  1  0.54539000  0.69274000  0.87298000  1.0
  C  C48  1  0.45461000  0.30726000  0.12702000  1.0
  C  C49  1  0.44695000  0.73171000  0.75221000  1.0
  C  C50  1  0.55306000  0.26829000  0.24779000  1.0
  C  C51  1  0.32511000  0.86273000  0.70446000  1.0
  C  C52  1  0.67489000  0.13728000  0.29554000  1.0
  C  C53  1  0.22193000  0.90466000  0.59400000  1.0
  C  C54  1  0.77807000  0.09534000  0.40600000  1.0
  C  C55  1  0.23855000  0.81768000  0.52550000  1.0
  C  C56  1  0.76145000  0.18232000  0.47450000  1.0
  C  C57  1  0.35878000  0.68573000  0.57282000  1.0
  C  C58  1  0.64122000  0.31427000  0.42718000  1.0
  C  C59  1  0.46155000  0.64314000  0.68515000  1.0
  C  C60  1  0.53845000  0.35687000  0.31485000  1.0
  C  C61  1  0.95759000  0.34541000  0.14833000  1.0
  C  C62  1  0.04240000  0.65459000  0.85167000  1.0
  C  C63  1  0.06526000  0.25220000  0.26145000  1.0
  C  C64  1  0.93473000  0.74780000  0.73855000  1.0
  C  C65  1  0.12191000  0.69512000  0.22316000  1.0
  C  C66  1  0.87809000  0.30487000  0.77684000  1.0
  C  C67  1  0.06157000  0.85404000  0.10941000  1.0
  C  C68  1  0.93844000  0.14596000  0.89059000  1.0
  C  C69  1  0.92787000  0.94799000  0.12036000  1.0
  C  C70  1  0.07212000  0.05200000  0.87965000  1.0
  C  C71  1  0.07557000  0.28985000  0.36674000  1.0
  C  C72  1  0.92442000  0.71015000  0.63326000  1.0
  C  C73  1  0.13386000  0.90752000  0.98790000  1.0
  C  C74  1  0.86614000  0.09247000  0.01210000  1.0
  N  N75  1  0.78861000  0.62650000  0.39052000  1.0
  N  N76  1  0.21139000  0.37350000  0.60948000  1.0
  N  N77  1  0.98655000  0.41446000  0.36509000  1.0
  N  N78  1  0.01345000  0.58554000  0.63491000  1.0
  N  N79  1  0.51613000  0.76716000  0.94649000  1.0
  N  N80  1  0.48387000  0.23284000  0.05351000  1.0
  N  N81  1  0.67530000  0.57487000  0.92932000  1.0
  N  N82  1  0.32470000  0.42513000  0.07068000  1.0
  O  O83  1  0.13582000  0.86828000  0.41548000  1.0
  O  O84  1  0.86418000  0.13172000  0.58452000  1.0
  O  O85  1  0.08379000  0.67111000  0.34582000  1.0
  O  O86  1  0.91621000  0.32889000  0.65418000  1.0
  O  O87  1  0.20185000  0.59582000  0.19820000  1.0
  O  O88  1  0.79815000  0.40417000  0.80180000  1.0
