# generated using pymatgen
data_CdH8C12(NO2)2
_symmetry_space_group_name_H-M   'P 1'
_cell_length_a   7.75225000
_cell_length_b   8.06619000
_cell_length_c   19.46470000
_cell_angle_alpha   90.00000000
_cell_angle_beta   90.00000000
_cell_angle_gamma   90.00000000
_symmetry_Int_Tables_number   1
_chemical_formula_structural   CdH8C12(NO2)2
_chemical_formula_sum   'Cd4 H32 C48 N8 O16'
_cell_volume   1217.14951925
_cell_formula_units_Z   4
loop_
 _symmetry_equiv_pos_site_id
 _symmetry_equiv_pos_as_xyz
  1  'x, y, z'
loop_
 _atom_site_type_symbol
 _atom_site_label
 _atom_site_symmetry_multiplicity
 _atom_site_fract_x
 _atom_site_fract_y
 _atom_site_fract_z
 _atom_site_occupancy
  Cd  Cd0  1  0.00973000  0.03225000  0.01063000  1.0
  Cd  Cd1  1  0.50974000  0.96775000  0.98937000  1.0
  Cd  Cd2  1  0.50973000  0.46775000  0.51063000  1.0
  Cd  Cd3  1  0.00973000  0.53225000  0.48937000  1.0
  H  H4  1  0.28986000  0.29837000  0.95400000  1.0
  H  H5  1  0.78986000  0.70162000  0.04600000  1.0
  H  H6  1  0.78986000  0.20163000  0.45400000  1.0
  H  H7  1  0.28986000  0.79838000  0.54600000  1.0
  H  H8  1  0.29768000  0.55126000  0.88127000  1.0
  H  H9  1  0.79766000  0.44872000  0.11873000  1.0
  H  H10  1  0.79768000  0.94874000  0.38126000  1.0
  H  H11  1  0.29767000  0.05127000  0.61873000  1.0
  H  H12  1  0.01795000  0.68104000  0.84409000  1.0
  H  H13  1  0.51793000  0.31896000  0.15591000  1.0
  H  H14  1  0.51796000  0.81897000  0.34409000  1.0
  H  H15  1  0.01794000  0.18104000  0.65591000  1.0
  H  H16  1  0.73935000  0.55053000  0.88467000  1.0
  H  H17  1  0.23933000  0.44948000  0.11533000  1.0
  H  H18  1  0.23935000  0.94947000  0.38467000  1.0
  H  H19  1  0.73934000  0.05052000  0.61533000  1.0
  H  H20  1  0.29132000  0.14253000  0.25490000  1.0
  H  H21  1  0.79133000  0.85747000  0.74510000  1.0
  H  H22  1  0.79132000  0.35746000  0.75490000  1.0
  H  H23  1  0.29132000  0.64253000  0.24510000  1.0
  H  H24  1  0.01811000  0.17954000  0.32298000  1.0
  H  H25  1  0.51811000  0.82046000  0.67702000  1.0
  H  H26  1  0.51811000  0.32046000  0.82298000  1.0
  H  H27  1  0.01810000  0.67954000  0.17702000  1.0
  H  H28  1  0.73325000  0.13995000  0.26117000  1.0
  H  H29  1  0.23325000  0.86005000  0.73882000  1.0
  H  H30  1  0.23325000  0.36005000  0.76118000  1.0
  H  H31  1  0.73324000  0.63995000  0.23883000  1.0
  H  H32  1  0.73531000  0.07141000  0.13669000  1.0
  H  H33  1  0.23531000  0.92860000  0.86331000  1.0
  H  H34  1  0.23531000  0.42860000  0.63669000  1.0
  H  H35  1  0.73530000  0.57140000  0.36331000  1.0
  C  C36  1  0.17048000  0.35694000  0.93716000  1.0
  C  C37  1  0.67048000  0.64305000  0.06284000  1.0
  C  C38  1  0.67049000  0.14307000  0.43716000  1.0
  C  C39  1  0.17048000  0.85694000  0.56284000  1.0
  C  C40  1  0.17403000  0.49839000  0.89613000  1.0
  C  C41  1  0.67402000  0.50161000  0.10387000  1.0
  C  C42  1  0.67404000  0.00162000  0.39613000  1.0
  C  C43  1  0.17402000  0.99839000  0.60387000  1.0
  C  C44  1  0.01867000  0.56994000  0.87584000  1.0
  C  C45  1  0.51866000  0.43006000  0.12416000  1.0
  C  C46  1  0.51868000  0.93006000  0.37584000  1.0
  C  C47  1  0.01866000  0.06994000  0.62416000  1.0
  C  C48  1  0.86459000  0.49895000  0.89813000  1.0
  C  C49  1  0.36457000  0.50106000  0.10187000  1.0
  C  C50  1  0.36459000  0.00105000  0.39813000  1.0
  C  C51  1  0.86458000  0.99895000  0.60187000  1.0
  C  C52  1  0.87068000  0.35775000  0.93945000  1.0
  C  C53  1  0.37067000  0.64226000  0.06055000  1.0
  C  C54  1  0.37069000  0.14225000  0.43945000  1.0
  C  C55  1  0.87068000  0.85775000  0.56055000  1.0
  C  C56  1  0.70645000  0.27338000  0.96281000  1.0
  C  C57  1  0.20645000  0.72663000  0.03719000  1.0
  C  C58  1  0.20646000  0.22662000  0.46281000  1.0
  C  C59  1  0.70645000  0.77338000  0.53719000  1.0
  C  C60  1  0.15580000  0.09385000  0.16094000  1.0
  C  C61  1  0.65579000  0.90615000  0.83905000  1.0
  C  C62  1  0.65579000  0.40615000  0.66094000  1.0
  C  C63  1  0.15579000  0.59385000  0.33906000  1.0
  C  C64  1  0.16501000  0.13024000  0.23095000  1.0
  C  C65  1  0.66501000  0.86977000  0.76905000  1.0
  C  C66  1  0.66501000  0.36976000  0.73095000  1.0
  C  C67  1  0.16500000  0.63023000  0.26905000  1.0
  C  C68  1  0.01276000  0.15023000  0.26822000  1.0
  C  C69  1  0.51276000  0.84978000  0.73178000  1.0
  C  C70  1  0.51275000  0.34977000  0.76822000  1.0
  C  C71  1  0.01275000  0.65022000  0.23178000  1.0
  C  C72  1  0.85583000  0.12844000  0.23427000  1.0
  C  C73  1  0.35582000  0.87156000  0.76573000  1.0
  C  C74  1  0.35582000  0.37156000  0.73427000  1.0
  C  C75  1  0.85582000  0.62844000  0.26573000  1.0
  C  C76  1  0.85601000  0.09014000  0.16442000  1.0
  C  C77  1  0.35601000  0.90987000  0.83558000  1.0
  C  C78  1  0.35601000  0.40987000  0.66442000  1.0
  C  C79  1  0.85600000  0.59013000  0.33558000  1.0
  C  C80  1  0.31889000  0.07170000  0.11911000  1.0
  C  C81  1  0.81889000  0.92830000  0.88089000  1.0
  C  C82  1  0.81888000  0.42830000  0.61911000  1.0
  C  C83  1  0.31888000  0.57170000  0.38089000  1.0
  N  N84  1  0.02183000  0.28789000  0.95795000  1.0
  N  N85  1  0.52182000  0.71211000  0.04205000  1.0
  N  N86  1  0.52183000  0.21211000  0.45795000  1.0
  N  N87  1  0.02182000  0.78789000  0.54205000  1.0
  N  N88  1  0.00314000  0.07561000  0.12833000  1.0
  N  N89  1  0.50314000  0.92439000  0.87167000  1.0
  N  N90  1  0.50314000  0.42439000  0.62833000  1.0
  N  N91  1  0.00313000  0.57560000  0.37167000  1.0
  O  O92  1  0.72042000  0.16811000  0.01249000  1.0
  O  O93  1  0.22041000  0.83189000  0.98751000  1.0
  O  O94  1  0.22041000  0.33189000  0.51249000  1.0
  O  O95  1  0.72041000  0.66811000  0.48751000  1.0
  O  O96  1  0.56927000  0.30482000  0.93145000  1.0
  O  O97  1  0.06926000  0.69520000  0.06855000  1.0
  O  O98  1  0.06926000  0.19517000  0.43145000  1.0
  O  O99  1  0.56926000  0.80482000  0.56855000  1.0
  O  O100  1  0.30570000  0.10738000  0.05457000  1.0
  O  O101  1  0.80570000  0.89262000  0.94542000  1.0
  O  O102  1  0.80570000  0.39262000  0.55458000  1.0
  O  O103  1  0.30569000  0.60738000  0.44543000  1.0
  O  O104  1  0.45166000  0.02141000  0.14889000  1.0
  O  O105  1  0.95166000  0.97858000  0.85111000  1.0
  O  O106  1  0.95166000  0.47859000  0.64889000  1.0
  O  O107  1  0.45166000  0.52142000  0.35112000  1.0
