# generated using pymatgen
data_CuH13C19SNO4
_symmetry_space_group_name_H-M   'P 1'
_cell_length_a   8.04729000
_cell_length_b   10.63680000
_cell_length_c   10.95600000
_cell_angle_alpha   68.88520000
_cell_angle_beta   80.89540000
_cell_angle_gamma   73.97540000
_symmetry_Int_Tables_number   1
_chemical_formula_structural   CuH13C19SNO4
_chemical_formula_sum   'Cu2 H26 C38 S2 N2 O8'
_cell_volume   839.03831851
_cell_formula_units_Z   2
loop_
 _symmetry_equiv_pos_site_id
 _symmetry_equiv_pos_as_xyz
  1  'x, y, z'
loop_
 _atom_site_type_symbol
 _atom_site_label
 _atom_site_symmetry_multiplicity
 _atom_site_fract_x
 _atom_site_fract_y
 _atom_site_fract_z
 _atom_site_occupancy
  Cu  Cu0  1  0.62949000  0.92575000  0.44842000  1.0
  Cu  Cu1  1  0.37052000  0.07425000  0.55156000  1.0
  H  H2  1  0.64548000  0.56618000  0.78052000  1.0
  H  H3  1  0.35451000  0.43383000  0.21948000  1.0
  H  H4  1  0.61329000  0.33654000  0.93972000  1.0
  H  H5  1  0.38671000  0.66346000  0.06028000  1.0
  H  H6  1  0.32008000  0.28584000  0.99610000  1.0
  H  H7  1  0.67993000  0.71417000  0.00390000  1.0
  H  H8  1  0.06331000  0.46613000  0.89784000  1.0
  H  H9  1  0.93669000  0.53387000  0.10217000  1.0
  H  H10  1  0.14289000  0.71706000  0.95465000  1.0
  H  H11  1  0.85709000  0.28294000  0.04535000  1.0
  H  H12  1  0.01780000  0.82713000  0.12125000  1.0
  H  H13  1  0.98217000  0.17288000  0.87875000  1.0
  H  H14  1  0.72852000  0.99536000  0.09653000  1.0
  H  H15  1  0.27145000  0.00464000  0.90346000  1.0
  H  H16  1  0.57671000  0.05943000  0.89155000  1.0
  H  H17  1  0.42328000  0.94058000  0.10843000  1.0
  H  H18  1  0.00544000  0.93280000  0.40244000  1.0
  H  H19  1  0.99458000  0.06719000  0.59758000  1.0
  H  H20  1  0.29514000  0.76763000  0.39399000  1.0
  H  H21  1  0.70488000  0.23237000  0.60602000  1.0
  H  H22  1  0.30394000  0.54008000  0.37001000  1.0
  H  H23  1  0.69609000  0.45991000  0.63000000  1.0
  H  H24  1  0.02601000  0.49342000  0.34018000  1.0
  H  H25  1  0.97402000  0.50657000  0.65984000  1.0
  H  H26  1  0.74830000  0.66952000  0.35179000  1.0
  H  H27  1  0.25172000  0.33047000  0.64821000  1.0
  C  C28  1  0.40838000  0.77770000  0.65022000  1.0
  C  C29  1  0.59161000  0.22230000  0.34977000  1.0
  C  C30  1  0.37416000  0.64472000  0.74878000  1.0
  C  C31  1  0.62584000  0.35528000  0.25121000  1.0
  C  C32  1  0.51841000  0.54261000  0.80642000  1.0
  C  C33  1  0.48159000  0.45740000  0.19358000  1.0
  C  C34  1  0.49977000  0.41464000  0.89578000  1.0
  C  C35  1  0.50023000  0.58536000  0.10421000  1.0
  C  C36  1  0.33600000  0.38639000  0.92808000  1.0
  C  C37  1  0.66400000  0.61362000  0.07192000  1.0
  C  C38  1  0.19132000  0.48799000  0.87295000  1.0
  C  C39  1  0.80868000  0.51201000  0.12706000  1.0
  C  C40  1  0.20768000  0.61841000  0.78506000  1.0
  C  C41  1  0.79232000  0.38159000  0.21494000  1.0
  C  C42  1  0.93157000  0.82234000  0.82796000  1.0
  C  C43  1  0.06842000  0.17766000  0.17203000  1.0
  C  C44  1  0.01773000  0.79130000  0.94111000  1.0
  C  C45  1  0.98225000  0.20871000  0.05889000  1.0
  C  C46  1  0.94601000  0.85307000  0.03570000  1.0
  C  C47  1  0.05396000  0.14693000  0.96430000  1.0
  C  C48  1  0.78529000  0.94892000  0.02099000  1.0
  C  C49  1  0.21469000  0.05109000  0.97900000  1.0
  C  C50  1  0.70078000  0.98374000  0.90810000  1.0
  C  C51  1  0.29920000  0.01627000  0.09189000  1.0
  C  C52  1  0.77050000  0.92243000  0.81102000  1.0
  C  C53  1  0.22948000  0.07757000  0.18897000  1.0
  C  C54  1  0.66962000  0.96401000  0.69451000  1.0
  C  C55  1  0.33037000  0.03600000  0.30547000  1.0
  C  C56  1  0.01653000  0.83426000  0.38849000  1.0
  C  C57  1  0.98348000  0.16573000  0.61152000  1.0
  C  C58  1  0.17692000  0.74217000  0.38392000  1.0
  C  C59  1  0.82311000  0.25781000  0.61610000  1.0
  C  C60  1  0.18171000  0.61659000  0.36893000  1.0
  C  C61  1  0.81831000  0.38340000  0.63109000  1.0
  C  C62  1  0.02734000  0.58982000  0.35364000  1.0
  C  C63  1  0.97269000  0.41017000  0.64638000  1.0
  C  C64  1  0.87277000  0.68708000  0.36025000  1.0
  C  C65  1  0.12725000  0.31291000  0.63975000  1.0
  S  S66  1  0.01890000  0.73905000  0.71068000  1.0
  S  S67  1  0.98109000  0.26095000  0.28932000  1.0
  N  N68  1  0.86663000  0.80622000  0.37966000  1.0
  N  N69  1  0.13339000  0.19377000  0.62034000  1.0
  O  O70  1  0.53429000  0.76269000  0.56563000  1.0
  O  O71  1  0.46570000  0.23731000  0.43436000  1.0
  O  O72  1  0.31543000  0.89107000  0.66184000  1.0
  O  O73  1  0.68457000  0.10893000  0.33815000  1.0
  O  O74  1  0.51919000  0.04525000  0.69291000  1.0
  O  O75  1  0.48081000  0.95476000  0.30707000  1.0
  O  O76  1  0.74222000  0.91417000  0.60364000  1.0
  O  O77  1  0.25778000  0.08583000  0.39634000  1.0
