# generated using pymatgen
data_ZnNiH12(C7N4)2
_symmetry_space_group_name_H-M   'P 1'
_cell_length_a   7.07394000
_cell_length_b   7.33448000
_cell_length_c   8.54717572
_cell_angle_alpha   103.44397302
_cell_angle_beta   114.31532973
_cell_angle_gamma   89.89910000
_symmetry_Int_Tables_number   1
_chemical_formula_structural   ZnNiH12(C7N4)2
_chemical_formula_sum   'Zn1 Ni1 H12 C14 N8'
_cell_volume   390.83184313
_cell_formula_units_Z   1
loop_
 _symmetry_equiv_pos_site_id
 _symmetry_equiv_pos_as_xyz
  1  'x, y, z'
loop_
 _atom_site_type_symbol
 _atom_site_label
 _atom_site_symmetry_multiplicity
 _atom_site_fract_x
 _atom_site_fract_y
 _atom_site_fract_z
 _atom_site_occupancy
  Zn  Zn0  1  0.49512000  0.50052000  0.00048000  1.0
  Ni  Ni1  1  0.99301000  0.00021000  0.00000000  1.0
  H  H2  1  0.61843000  0.19484000  0.21184000  1.0
  H  H3  1  0.39576000  0.80604000  0.78758000  1.0
  H  H4  1  0.87625000  0.48662000  0.76887000  1.0
  H  H5  1  0.10555000  0.51146000  0.23091000  1.0
  H  H6  1  0.80552000  0.78787000  0.67625000  1.0
  H  H7  1  0.14071000  0.21063000  0.32461000  1.0
  H  H8  1  0.64157000  0.77578000  0.34980000  1.0
  H  H9  1  0.30452000  0.22465000  0.65228000  1.0
  H  H10  1  0.89074000  0.15154000  0.66714000  1.0
  H  H11  1  0.20819000  0.84895000  0.33154000  1.0
  H  H12  1  0.81700000  0.04102000  0.45196000  1.0
  H  H13  1  0.34615000  0.96066000  0.54689000  1.0
  C  C14  1  0.66315000  0.32341000  0.31915000  1.0
  C  C15  1  0.33735000  0.67698000  0.68057000  1.0
  C  C16  1  0.75489000  0.31493000  0.49748000  1.0
  C  C17  1  0.24945000  0.68459000  0.50195000  1.0
  C  C18  1  0.80571000  0.48608000  0.62876000  1.0
  C  C19  1  0.17541000  0.51275000  0.37118000  1.0
  C  C20  1  0.76663000  0.65320000  0.57677000  1.0
  C  C21  1  0.19569000  0.34574000  0.42389000  1.0
  C  C22  1  0.67777000  0.64904000  0.39720000  1.0
  C  C23  1  0.28689000  0.35091000  0.60364000  1.0
  C  C24  1  0.19051000  0.83266000  0.03589000  1.0
  C  C25  1  0.15663000  0.16606000  0.96447000  1.0
  C  C26  1  0.79504000  0.16759000  0.96237000  1.0
  C  C27  1  0.83045000  0.83463000  0.03735000  1.0
  N  N28  1  0.62715000  0.48583000  0.27155000  1.0
  N  N29  1  0.35560000  0.51469000  0.72884000  1.0
  N  N30  1  0.30930000  0.71928000  0.05744000  1.0
  N  N31  1  0.25495000  0.27846000  0.94309000  1.0
  N  N32  1  0.67643000  0.28108000  0.94162000  1.0
  N  N33  1  0.73182000  0.72190000  0.05793000  1.0
  N  N34  1  0.78783000  0.14309000  0.53986000  1.0
  N  N35  1  0.23285000  0.85635000  0.45887000  1.0
