# generated using pymatgen
data_Zn3H18C28(NO7)2
_symmetry_space_group_name_H-M   'P 1'
_cell_length_a   10.42740000
_cell_length_b   10.69950000
_cell_length_c   14.82640000
_cell_angle_alpha   87.81040000
_cell_angle_beta   85.50290000
_cell_angle_gamma   60.83780000
_symmetry_Int_Tables_number   1
_chemical_formula_structural   Zn3H18C28(NO7)2
_chemical_formula_sum   'Zn6 H36 C56 N4 O28'
_cell_volume   1440.03016536
_cell_formula_units_Z   2
loop_
 _symmetry_equiv_pos_site_id
 _symmetry_equiv_pos_as_xyz
  1  'x, y, z'
loop_
 _atom_site_type_symbol
 _atom_site_label
 _atom_site_symmetry_multiplicity
 _atom_site_fract_x
 _atom_site_fract_y
 _atom_site_fract_z
 _atom_site_occupancy
  Zn  Zn0  1  0.98924000  0.61643000  0.67065000  1.0
  Zn  Zn1  1  0.60568000  0.38357000  0.17065000  1.0
  Zn  Zn2  1  0.01076000  0.38357000  0.32935000  1.0
  Zn  Zn3  1  0.39432000  0.61643000  0.82935000  1.0
  Zn  Zn4  1  0.02278000  0.95444000  0.75000000  1.0
  Zn  Zn5  1  0.97722000  0.04556000  0.25000000  1.0
  H  H6  1  0.81566000  0.59130000  0.90862000  1.0
  H  H7  1  0.40696000  0.40870000  0.40862000  1.0
  H  H8  1  0.18434000  0.40870000  0.09138000  1.0
  H  H9  1  0.59304000  0.59130000  0.59138000  1.0
  H  H10  1  0.79580000  0.64747000  0.19633000  1.0
  H  H11  1  0.44327000  0.35253000  0.69633000  1.0
  H  H12  1  0.20420000  0.35253000  0.80367000  1.0
  H  H13  1  0.55673000  0.64748000  0.30367000  1.0
  H  H14  1  0.96904000  0.86045000  0.01351000  1.0
  H  H15  1  0.82949000  0.13955000  0.51351000  1.0
  H  H16  1  0.03096000  0.13955000  0.98649000  1.0
  H  H17  1  0.17051000  0.86045000  0.48649000  1.0
  H  H18  1  0.70391000  0.82312000  0.72677000  1.0
  H  H19  1  0.52703000  0.17688000  0.22677000  1.0
  H  H20  1  0.29609000  0.17688000  0.27323000  1.0
  H  H21  1  0.47297000  0.82312000  0.77323000  1.0
  H  H22  1  0.46802000  0.98738000  0.65881000  1.0
  H  H23  1  0.45540000  0.01261000  0.15881000  1.0
  H  H24  1  0.53198000  0.01262000  0.34119000  1.0
  H  H25  1  0.54460000  0.98738000  0.84119000  1.0
  H  H26  1  0.71945000  0.89907000  0.39872000  1.0
  H  H27  1  0.61852000  0.10093000  0.89872000  1.0
  H  H28  1  0.28055000  0.10093000  0.60128000  1.0
  H  H29  1  0.38148000  0.89907000  0.10128000  1.0
  H  H30  1  0.93977000  0.74223000  0.47904000  1.0
  H  H31  1  0.68199000  0.25777000  0.97904000  1.0
  H  H32  1  0.06023000  0.25777000  0.52096000  1.0
  H  H33  1  0.31800000  0.74223000  0.02096000  1.0
  H  H34  1  0.98010000  0.37518000  0.68946000  1.0
  H  H35  1  0.35529000  0.62482000  0.18946000  1.0
  H  H36  1  0.01990000  0.62482000  0.31054000  1.0
  H  H37  1  0.64471000  0.37518000  0.81054000  1.0
  H  H38  1  0.88000000  0.46848000  0.60674000  1.0
  H  H39  1  0.34848000  0.53151000  0.10674000  1.0
  H  H40  1  0.12000000  0.53152000  0.39326000  1.0
  H  H41  1  0.65152000  0.46849000  0.89326000  1.0
  C  C42  1  0.89855000  0.72709000  0.95177000  1.0
  C  C43  1  0.62564000  0.27291000  0.45177000  1.0
  C  C44  1  0.10145000  0.27291000  0.04823000  1.0
  C  C45  1  0.37436000  0.72709000  0.54823000  1.0
  C  C46  1  0.83418000  0.63934000  0.96615000  1.0
  C  C47  1  0.47352000  0.36066000  0.46615000  1.0
  C  C48  1  0.16582000  0.36066000  0.03385000  1.0
  C  C49  1  0.52648000  0.63934000  0.53385000  1.0
  C  C50  1  0.79636000  0.61169000  0.05396000  1.0
  C  C51  1  0.40806000  0.38831000  0.55396000  1.0
  C  C52  1  0.20364000  0.38831000  0.94604000  1.0
  C  C53  1  0.59194000  0.61169000  0.44604000  1.0
  C  C54  1  0.82369000  0.67144000  0.12788000  1.0
  C  C55  1  0.49513000  0.32856000  0.62789000  1.0
  C  C56  1  0.17631000  0.32856000  0.87212000  1.0
  C  C57  1  0.50487000  0.67144000  0.37211000  1.0
  C  C58  1  0.88436000  0.76244000  0.11383000  1.0
  C  C59  1  0.64679000  0.23756000  0.61383000  1.0
  C  C60  1  0.11564000  0.23756000  0.88617000  1.0
  C  C61  1  0.35321000  0.76244000  0.38617000  1.0
  C  C62  1  0.92151000  0.79007000  0.02530000  1.0
  C  C63  1  0.71158000  0.20993000  0.52530000  1.0
  C  C64  1  0.07849000  0.20993000  0.97470000  1.0
  C  C65  1  0.28842000  0.79007000  0.47470000  1.0
  C  C66  1  0.94223000  0.75279000  0.85743000  1.0
  C  C67  1  0.69502000  0.24721000  0.35743000  1.0
  C  C68  1  0.05777000  0.24721000  0.14257000  1.0
  C  C69  1  0.30498000  0.75279000  0.64257000  1.0
  C  C70  1  0.72869000  0.51701000  0.06901000  1.0
  C  C71  1  0.24570000  0.48299000  0.56901000  1.0
  C  C72  1  0.27131000  0.48299000  0.93099000  1.0
  C  C73  1  0.75430000  0.51701000  0.43099000  1.0
  C  C74  1  0.90636000  0.83374000  0.19228000  1.0
  C  C75  1  0.74010000  0.16627000  0.69228000  1.0
  C  C76  1  0.09364000  0.16627000  0.80772000  1.0
  C  C77  1  0.25990000  0.83374000  0.30772000  1.0
  C  C78  1  0.69934000  0.84526000  0.65448000  1.0
  C  C79  1  0.54460000  0.15474000  0.15448000  1.0
  C  C80  1  0.30066000  0.15474000  0.34552000  1.0
  C  C81  1  0.45540000  0.84526000  0.84552000  1.0
  C  C82  1  0.56927000  0.93542000  0.61565000  1.0
  C  C83  1  0.50469000  0.06458000  0.11566000  1.0
  C  C84  1  0.43073000  0.06458000  0.38434000  1.0
  C  C85  1  0.49531000  0.93542000  0.88435000  1.0
  C  C86  1  0.56952000  0.95568000  0.52164000  1.0
  C  C87  1  0.52521000  0.04431000  0.02164000  1.0
  C  C88  1  0.43048000  0.04432000  0.47836000  1.0
  C  C89  1  0.47479000  0.95568000  0.97836000  1.0
  C  C90  1  0.70614000  0.88816000  0.47169000  1.0
  C  C91  1  0.59431000  0.11184000  0.97169000  1.0
  C  C92  1  0.29386000  0.11184000  0.52831000  1.0
  C  C93  1  0.40569000  0.88816000  0.02831000  1.0
  C  C94  1  0.83235000  0.79943000  0.51549000  1.0
  C  C95  1  0.63177000  0.20057000  0.01549000  1.0
  C  C96  1  0.16765000  0.20057000  0.48451000  1.0
  C  C97  1  0.36822000  0.79943000  0.98451000  1.0
  N  N98  1  0.82850000  0.77606000  0.60512000  1.0
  N  N99  1  0.60456000  0.22394000  0.10512000  1.0
  N  N100  1  0.17150000  0.22394000  0.39488000  1.0
  N  N101  1  0.39544000  0.77606000  0.89488000  1.0
  O  O102  1  0.91884000  0.68929000  0.79496000  1.0
  O  O103  1  0.60813000  0.31071000  0.29496000  1.0
  O  O104  1  0.08116000  0.31071000  0.20504000  1.0
  O  O105  1  0.39187000  0.68929000  0.70504000  1.0
  O  O106  1  0.99658000  0.83630000  0.84768000  1.0
  O  O107  1  0.83289000  0.16370000  0.34768000  1.0
  O  O108  1  0.00342000  0.16369000  0.15232000  1.0
  O  O109  1  0.16712000  0.83630000  0.65232000  1.0
  O  O110  1  0.71209000  0.48733000  0.15320000  1.0
  O  O111  1  0.19942000  0.51267000  0.65320000  1.0
  O  O112  1  0.28791000  0.51267000  0.84680000  1.0
  O  O113  1  0.80058000  0.48733000  0.34680000  1.0
  O  O114  1  0.69168000  0.47077000  0.00469000  1.0
  O  O115  1  0.16245000  0.52923000  0.50470000  1.0
  O  O116  1  0.30833000  0.52923000  0.99531000  1.0
  O  O117  1  0.83755000  0.47077000  0.49530000  1.0
  O  O118  1  0.91733000  0.94598000  0.17013000  1.0
  O  O119  1  0.86332000  0.05402000  0.67013000  1.0
  O  O120  1  0.08266000  0.05402000  0.82987000  1.0
  O  O121  1  0.13669000  0.94598000  0.32987000  1.0
  O  O122  1  0.90953000  0.78643000  0.27177000  1.0
  O  O123  1  0.69596000  0.21357000  0.77177000  1.0
  O  O124  1  0.09047000  0.21357000  0.72823000  1.0
  O  O125  1  0.30404000  0.78643000  0.22823000  1.0
  O  O126  1  0.91380000  0.47412000  0.66656000  1.0
  O  O127  1  0.38792000  0.52588000  0.16656000  1.0
  O  O128  1  0.08620000  0.52588000  0.33344000  1.0
  O  O129  1  0.61208000  0.47412000  0.83344000  1.0
