# generated using pymatgen
data_NaH4C3N6ClO2
_symmetry_space_group_name_H-M   'P 1'
_cell_length_a   8.29029000
_cell_length_b   9.48263000
_cell_length_c   10.22860000
_cell_angle_alpha   90.00000000
_cell_angle_beta   109.04000000
_cell_angle_gamma   90.00000000
_symmetry_Int_Tables_number   1
_chemical_formula_structural   NaH4C3N6ClO2
_chemical_formula_sum   'Na4 H16 C12 N24 Cl4 O8'
_cell_volume   760.11669625
_cell_formula_units_Z   4
loop_
 _symmetry_equiv_pos_site_id
 _symmetry_equiv_pos_as_xyz
  1  'x, y, z'
loop_
 _atom_site_type_symbol
 _atom_site_label
 _atom_site_symmetry_multiplicity
 _atom_site_fract_x
 _atom_site_fract_y
 _atom_site_fract_z
 _atom_site_occupancy
  Na  Na0  1  0.97724000  0.18598000  0.92336000  1.0
  Na  Na1  1  0.52276000  0.68598000  0.07664000  1.0
  Na  Na2  1  0.02276000  0.81402000  0.07664000  1.0
  Na  Na3  1  0.47724000  0.31402000  0.92336000  1.0
  H  H4  1  0.83244000  0.30786000  0.32529000  1.0
  H  H5  1  0.66756000  0.80786000  0.67471000  1.0
  H  H6  1  0.16756000  0.69214000  0.67471000  1.0
  H  H7  1  0.33244000  0.19214000  0.32529000  1.0
  H  H8  1  0.61838000  0.27929000  0.31820000  1.0
  H  H9  1  0.88163000  0.77929000  0.68180000  1.0
  H  H10  1  0.38163000  0.72071000  0.68179000  1.0
  H  H11  1  0.11837000  0.22071000  0.31820000  1.0
  H  H12  1  0.93878000  0.16704000  0.54599000  1.0
  H  H13  1  0.56122000  0.66704000  0.45401000  1.0
  H  H14  1  0.06122000  0.83296000  0.45401000  1.0
  H  H15  1  0.43878000  0.33296000  0.54599000  1.0
  H  H16  1  0.81501000  0.31619000  0.56094000  1.0
  H  H17  1  0.68499000  0.81619000  0.43906000  1.0
  H  H18  1  0.18499000  0.68381000  0.43906000  1.0
  H  H19  1  0.31501000  0.18381000  0.56094000  1.0
  C  C20  1  0.74723000  0.23483000  0.35463000  1.0
  C  C21  1  0.75277000  0.73483000  0.64537000  1.0
  C  C22  1  0.25277000  0.76517000  0.64537000  1.0
  C  C23  1  0.24723000  0.26517000  0.35463000  1.0
  C  C24  1  0.60908000  0.02283000  0.20596000  1.0
  C  C25  1  0.89092000  0.52283000  0.79405000  1.0
  C  C26  1  0.39092000  0.97717000  0.79405000  1.0
  C  C27  1  0.10908000  0.47717000  0.20596000  1.0
  C  C28  1  0.81160000  0.21431000  0.50990000  1.0
  C  C29  1  0.68840000  0.71431000  0.49010000  1.0
  C  C30  1  0.18840000  0.78569000  0.49010000  1.0
  C  C31  1  0.31160000  0.28569000  0.50990000  1.0
  N  N32  1  0.74457000  0.10343000  0.28071000  1.0
  N  N33  1  0.75543000  0.60343000  0.71929000  1.0
  N  N34  1  0.25543000  0.89657000  0.71929000  1.0
  N  N35  1  0.24457000  0.39657000  0.28071000  1.0
  N  N36  1  0.67374000  0.90629000  0.16603000  1.0
  N  N37  1  0.82626000  0.40629000  0.83397000  1.0
  N  N38  1  0.32626000  0.09371000  0.83397000  1.0
  N  N39  1  0.17374000  0.59371000  0.16603000  1.0
  N  N40  1  0.89028000  0.03809000  0.28507000  1.0
  N  N41  1  0.60972000  0.53809000  0.71493000  1.0
  N  N42  1  0.10972000  0.96191000  0.71494000  1.0
  N  N43  1  0.39028000  0.46191000  0.28506000  1.0
  N  N44  1  0.44950000  0.07501000  0.18464000  1.0
  N  N45  1  0.05050000  0.57500000  0.81536000  1.0
  N  N46  1  0.55050000  0.92499000  0.81536000  1.0
  N  N47  1  0.94950000  0.42500000  0.18464000  1.0
  N  N48  1  0.84621000  0.92115000  0.21598000  1.0
  N  N49  1  0.65379000  0.42115000  0.78402000  1.0
  N  N50  1  0.15379000  0.07885000  0.78402000  1.0
  N  N51  1  0.34621000  0.57885000  0.21598000  1.0
  N  N52  1  0.31661000  0.99689000  0.11864000  1.0
  N  N53  1  0.18339000  0.49688000  0.88136000  1.0
  N  N54  1  0.68339000  0.00311000  0.88136000  1.0
  N  N55  1  0.81661000  0.50312000  0.11864000  1.0
  Cl  Cl56  1  0.67575000  0.09978000  0.56680000  1.0
  Cl  Cl57  1  0.82425000  0.59978000  0.43320000  1.0
  Cl  Cl58  1  0.32426000  0.90022000  0.43320000  1.0
  Cl  Cl59  1  0.17574000  0.40022000  0.56680000  1.0
  O  O60  1  0.17085000  0.05037000  0.10320000  1.0
  O  O61  1  0.32915000  0.55036000  0.89679000  1.0
  O  O62  1  0.82915000  0.94963000  0.89680000  1.0
  O  O63  1  0.67085000  0.44964000  0.10321000  1.0
  O  O64  1  0.32486000  0.87322000  0.07355000  1.0
  O  O65  1  0.17514000  0.37322000  0.92645000  1.0
  O  O66  1  0.67514000  0.12678000  0.92645000  1.0
  O  O67  1  0.82486000  0.62678000  0.07355000  1.0
