# generated using pymatgen
data_CoPH10C6NO6
_symmetry_space_group_name_H-M   'P 1'
_cell_length_a   6.57548000
_cell_length_b   7.40770000
_cell_length_c   9.94932000
_cell_angle_alpha   87.60160000
_cell_angle_beta   77.36460000
_cell_angle_gamma   70.12710000
_symmetry_Int_Tables_number   1
_chemical_formula_structural   CoPH10C6NO6
_chemical_formula_sum   'Co2 P2 H20 C12 N2 O12'
_cell_volume   444.44649603
_cell_formula_units_Z   2
loop_
 _symmetry_equiv_pos_site_id
 _symmetry_equiv_pos_as_xyz
  1  'x, y, z'
loop_
 _atom_site_type_symbol
 _atom_site_label
 _atom_site_symmetry_multiplicity
 _atom_site_fract_x
 _atom_site_fract_y
 _atom_site_fract_z
 _atom_site_occupancy
  Co  Co0  1  0.26649000  0.17358000  0.03692000  1.0
  Co  Co1  1  0.73352000  0.82642000  0.96308000  1.0
  P  P2  1  0.73136000  0.21646000  0.11015000  1.0
  P  P3  1  0.26865000  0.78354000  0.88985000  1.0
  H  H4  1  0.56205000  0.26708000  0.48947000  1.0
  H  H5  1  0.43795000  0.73292000  0.51052000  1.0
  H  H6  1  0.68848000  0.40332000  0.66592000  1.0
  H  H7  1  0.31152000  0.59667000  0.33408000  1.0
  H  H8  1  0.09469000  0.35598000  0.63160000  1.0
  H  H9  1  0.90530000  0.64401000  0.36840000  1.0
  H  H10  1  0.34885000  0.19068000  0.40616000  1.0
  H  H11  1  0.65115000  0.80931000  0.59385000  1.0
  H  H12  1  0.67787000  0.01702000  0.29902000  1.0
  H  H13  1  0.32213000  0.98298000  0.70098000  1.0
  H  H14  1  0.95544000  0.93413000  0.20213000  1.0
  H  H15  1  0.04456000  0.06587000  0.79787000  1.0
  H  H16  1  0.32122000  0.44349000  0.14902000  1.0
  H  H17  1  0.67878000  0.55651000  0.85098000  1.0
  H  H18  1  0.11931000  0.55783000  0.07859000  1.0
  H  H19  1  0.88069000  0.44217000  0.92140000  1.0
  H  H20  1  0.37499000  0.39366000  0.83258000  1.0
  H  H21  1  0.62501000  0.60633000  0.16742000  1.0
  H  H22  1  0.50515000  0.16973000  0.80092000  1.0
  H  H23  1  0.49485000  0.83027000  0.19908000  1.0
  C  C24  1  0.88242000  0.15361000  0.35660000  1.0
  C  C25  1  0.11757000  0.84639000  0.64340000  1.0
  C  C26  1  0.73582000  0.25206000  0.47525000  1.0
  C  C27  1  0.26418000  0.74794000  0.52475000  1.0
  C  C28  1  0.80680000  0.32605000  0.57499000  1.0
  C  C29  1  0.19319000  0.67395000  0.42501000  1.0
  C  C30  1  0.03165000  0.30224000  0.55495000  1.0
  C  C31  1  0.96835000  0.69776000  0.44506000  1.0
  C  C32  1  0.17349000  0.21073000  0.43522000  1.0
  C  C33  1  0.82651000  0.78927000  0.56478000  1.0
  C  C34  1  0.81921000  0.06165000  0.25114000  1.0
  C  C35  1  0.18079000  0.93835000  0.74886000  1.0
  N  N36  1  0.09991000  0.13908000  0.33902000  1.0
  N  N37  1  0.90009000  0.86092000  0.66098000  1.0
  O  O38  1  0.93955000  0.23714000  0.01454000  1.0
  O  O39  1  0.06045000  0.76286000  0.98546000  1.0
  O  O40  1  0.61544000  0.10933000  0.03881000  1.0
  O  O41  1  0.38456000  0.89067000  0.96119000  1.0
  O  O42  1  0.56519000  0.40898000  0.17570000  1.0
  O  O43  1  0.43481000  0.59102000  0.82430000  1.0
  O  O44  1  0.24560000  0.04857000  0.22692000  1.0
  O  O45  1  0.75440000  0.95144000  0.77308000  1.0
  O  O46  1  0.17562000  0.44191000  0.13296000  1.0
  O  O47  1  0.82438000  0.55809000  0.86703000  1.0
  O  O48  1  0.35510000  0.26429000  0.83264000  1.0
  O  O49  1  0.64491000  0.73571000  0.16735000  1.0
