# generated using pymatgen
data_CuAg2H6C14(NO4)2
_symmetry_space_group_name_H-M   'P 1'
_cell_length_a   5.18296000
_cell_length_b   8.60954000
_cell_length_c   8.67509000
_cell_angle_alpha   107.26800000
_cell_angle_beta   99.59720000
_cell_angle_gamma   94.18250000
_symmetry_Int_Tables_number   1
_chemical_formula_structural   CuAg2H6C14(NO4)2
_chemical_formula_sum   'Cu1 Ag2 H6 C14 N2 O8'
_cell_volume   361.39174229
_cell_formula_units_Z   1
loop_
 _symmetry_equiv_pos_site_id
 _symmetry_equiv_pos_as_xyz
  1  'x, y, z'
loop_
 _atom_site_type_symbol
 _atom_site_label
 _atom_site_symmetry_multiplicity
 _atom_site_fract_x
 _atom_site_fract_y
 _atom_site_fract_z
 _atom_site_occupancy
  Cu  Cu0  1  0.00000000  0.00000000  0.00000000  1.0
  Ag  Ag1  1  0.18163000  0.39128000  0.95429000  1.0
  Ag  Ag2  1  0.81837000  0.60872000  0.04571000  1.0
  H  H3  1  0.73914000  0.09964000  0.46333000  1.0
  H  H4  1  0.26086000  0.90036000  0.53667000  1.0
  H  H5  1  0.18267000  0.44629000  0.56326000  1.0
  H  H6  1  0.81733000  0.55371000  0.43674000  1.0
  H  H7  1  0.92425000  0.30573000  0.27120000  1.0
  H  H8  1  0.07575000  0.69427000  0.72880000  1.0
  C  C9  1  0.40245000  0.07441000  0.27180000  1.0
  C  C10  1  0.59756000  0.92559000  0.72820000  1.0
  C  C11  1  0.55867000  0.14781000  0.42692000  1.0
  C  C12  1  0.44133000  0.85219000  0.57308000  1.0
  C  C13  1  0.48043000  0.28414000  0.53427000  1.0
  C  C14  1  0.51957000  0.71586000  0.46574000  1.0
  C  C15  1  0.24810000  0.34190000  0.48064000  1.0
  C  C16  1  0.75190000  0.65810000  0.51936000  1.0
  C  C17  1  0.10401000  0.26463000  0.32173000  1.0
  C  C18  1  0.89599000  0.73537000  0.67827000  1.0
  C  C19  1  0.53388000  0.07388000  0.85192000  1.0
  C  C20  1  0.46612000  0.92612000  0.14808000  1.0
  C  C21  1  0.65169000  0.36747000  0.70188000  1.0
  C  C22  1  0.34831000  0.63253000  0.29812000  1.0
  N  N23  1  0.81912000  0.86686000  0.77907000  1.0
  N  N24  1  0.18088000  0.13314000  0.22093000  1.0
  O  O25  1  0.70759000  0.13447000  0.98672000  1.0
  O  O26  1  0.29242000  0.86553000  0.01328000  1.0
  O  O27  1  0.32044000  0.12743000  0.81878000  1.0
  O  O28  1  0.67956000  0.87257000  0.18122000  1.0
  O  O29  1  0.87070000  0.31370000  0.72734000  1.0
  O  O30  1  0.12930000  0.68630000  0.27266000  1.0
  O  O31  1  0.56417000  0.48435000  0.79956000  1.0
  O  O32  1  0.43583000  0.51565000  0.20044000  1.0
