# generated using pymatgen
data_MnH18C21(NO2)2
_symmetry_space_group_name_H-M   'P 1'
_cell_length_a   9.49982000
_cell_length_b   10.20610000
_cell_length_c   11.07910000
_cell_angle_alpha   77.80800000
_cell_angle_beta   83.43100000
_cell_angle_gamma   65.47830000
_symmetry_Int_Tables_number   1
_chemical_formula_structural   MnH18C21(NO2)2
_chemical_formula_sum   'Mn2 H36 C42 N4 O8'
_cell_volume   954.82447895
_cell_formula_units_Z   2
loop_
 _symmetry_equiv_pos_site_id
 _symmetry_equiv_pos_as_xyz
  1  'x, y, z'
loop_
 _atom_site_type_symbol
 _atom_site_label
 _atom_site_symmetry_multiplicity
 _atom_site_fract_x
 _atom_site_fract_y
 _atom_site_fract_z
 _atom_site_occupancy
  Mn  Mn0  1  0.46745000  0.86060000  0.38262000  1.0
  Mn  Mn1  1  0.53255000  0.13940000  0.61738000  1.0
  H  H2  1  0.41159000  0.42585000  0.41656000  1.0
  H  H3  1  0.58841000  0.57415000  0.58344000  1.0
  H  H4  1  0.31082000  0.25844000  0.12728000  1.0
  H  H5  1  0.68918000  0.74156000  0.87272000  1.0
  H  H6  1  0.33553000  0.68029000  0.04900000  1.0
  H  H7  1  0.66448000  0.31971000  0.95101000  1.0
  H  H8  1  0.33807000  0.38512000  0.90565000  1.0
  H  H9  1  0.66193000  0.61489000  0.09436000  1.0
  H  H10  1  0.30728000  0.57260000  0.87858000  1.0
  H  H11  1  0.69272000  0.42740000  0.12142000  1.0
  H  H12  1  0.15264000  0.51850000  0.93335000  1.0
  H  H13  1  0.84736000  0.48151000  0.06666000  1.0
  H  H14  1  0.20433000  0.07582000  0.53393000  1.0
  H  H15  1  0.79567000  0.92418000  0.46606000  1.0
  H  H16  1  0.00049000  0.07610000  0.69739000  1.0
  H  H17  1  0.99952000  0.92390000  0.30261000  1.0
  H  H18  1  0.13610000  0.61832000  0.68958000  1.0
  H  H19  1  0.86389000  0.38168000  0.31041000  1.0
  H  H20  1  0.33145000  0.63677000  0.52653000  1.0
  H  H21  1  0.66855000  0.36323000  0.47347000  1.0
  H  H22  1  0.82327000  0.92117000  0.78870000  1.0
  H  H23  1  0.17673000  0.07883000  0.21130000  1.0
  H  H24  1  0.93164000  0.73017000  0.82915000  1.0
  H  H25  1  0.06837000  0.26983000  0.17084000  1.0
  H  H26  1  0.99118000  0.96903000  0.91412000  1.0
  H  H27  1  0.00881000  0.03097000  0.08588000  1.0
  H  H28  1  0.10047000  0.77948000  0.96043000  1.0
  H  H29  1  0.89953000  0.22052000  0.03956000  1.0
  H  H30  1  0.49729000  0.04793000  0.13035000  1.0
  H  H31  1  0.50271000  0.95206000  0.86965000  1.0
  H  H32  1  0.68428000  0.05656000  0.95283000  1.0
  H  H33  1  0.31572000  0.94343000  0.04717000  1.0
  H  H34  1  0.02351000  0.66301000  0.15602000  1.0
  H  H35  1  0.97649000  0.33699000  0.84398000  1.0
  H  H36  1  0.82094000  0.67199000  0.32416000  1.0
  H  H37  1  0.17906000  0.32800000  0.67584000  1.0
  C  C38  1  0.37761000  0.56414000  0.23629000  1.0
  C  C39  1  0.62240000  0.43586000  0.76371000  1.0
  C  C40  1  0.38504000  0.43866000  0.32060000  1.0
  C  C41  1  0.61495000  0.56134000  0.67940000  1.0
  C  C42  1  0.35924000  0.32902000  0.28144000  1.0
  C  C43  1  0.64075000  0.67098000  0.71856000  1.0
  C  C44  1  0.32801000  0.34567000  0.15722000  1.0
  C  C45  1  0.67199000  0.65434000  0.84279000  1.0
  C  C46  1  0.31706000  0.47178000  0.07188000  1.0
  C  C47  1  0.68293000  0.52823000  0.92812000  1.0
  C  C48  1  0.34122000  0.58123000  0.11323000  1.0
  C  C49  1  0.65878000  0.41877000  0.88678000  1.0
  C  C50  1  0.41100000  0.67806000  0.27837000  1.0
  C  C51  1  0.58900000  0.32194000  0.72163000  1.0
  C  C52  1  0.36678000  0.19447000  0.37126000  1.0
  C  C53  1  0.63322000  0.80553000  0.62874000  1.0
  C  C54  1  0.27743000  0.48822000  0.94046000  1.0
  C  C55  1  0.72257000  0.51178000  0.05954000  1.0
  C  C56  1  0.18391000  0.97706000  0.57025000  1.0
  C  C57  1  0.81609000  0.02294000  0.42974000  1.0
  C  C58  1  0.07217000  0.97571000  0.66259000  1.0
  C  C59  1  0.92783000  0.02429000  0.33741000  1.0
  C  C60  1  0.05211000  0.84559000  0.70971000  1.0
  C  C61  1  0.94789000  0.15441000  0.29028000  1.0
  C  C62  1  0.14558000  0.72302000  0.65741000  1.0
  C  C63  1  0.85442000  0.27698000  0.34259000  1.0
  C  C64  1  0.25493000  0.73272000  0.56523000  1.0
  C  C65  1  0.74507000  0.26728000  0.43477000  1.0
  C  C66  1  0.93881000  0.83719000  0.81402000  1.0
  C  C67  1  0.06119000  0.16281000  0.18597000  1.0
  C  C68  1  0.98460000  0.86152000  0.93396000  1.0
  C  C69  1  0.01539000  0.13848000  0.06604000  1.0
  C  C70  1  0.61503000  0.96444000  0.13130000  1.0
  C  C71  1  0.38496000  0.03556000  0.86871000  1.0
  C  C72  1  0.71926000  0.96864000  0.03345000  1.0
  C  C73  1  0.28074000  0.03135000  0.96655000  1.0
  C  C74  1  0.87010000  0.85912000  0.03915000  1.0
  C  C75  1  0.12990000  0.14088000  0.96086000  1.0
  C  C76  1  0.90751000  0.75018000  0.14555000  1.0
  C  C77  1  0.09249000  0.24981000  0.85445000  1.0
  C  C78  1  0.79571000  0.75453000  0.23970000  1.0
  C  C79  1  0.20428000  0.24547000  0.76030000  1.0
  N  N80  1  0.27570000  0.85738000  0.52199000  1.0
  N  N81  1  0.72430000  0.14263000  0.47801000  1.0
  N  N82  1  0.65121000  0.85954000  0.23333000  1.0
  N  N83  1  0.34878000  0.14046000  0.76667000  1.0
  O  O84  1  0.34216000  0.81257000  0.23034000  1.0
  O  O85  1  0.65784000  0.18743000  0.76967000  1.0
  O  O86  1  0.50826000  0.63575000  0.36445000  1.0
  O  O87  1  0.49175000  0.36425000  0.63555000  1.0
  O  O88  1  0.37000000  0.19309000  0.48644000  1.0
  O  O89  1  0.63000000  0.80690000  0.51356000  1.0
  O  O90  1  0.36644000  0.08832000  0.32790000  1.0
  O  O91  1  0.63356000  0.91168000  0.67210000  1.0
