# generated using pymatgen
data_HgH4C(N3Cl)2
_symmetry_space_group_name_H-M   'P 1'
_cell_length_a   4.14645000
_cell_length_b   9.89848000
_cell_length_c   17.68330000
_cell_angle_alpha   89.99970000
_cell_angle_beta   89.99960000
_cell_angle_gamma   88.70960000
_symmetry_Int_Tables_number   1
_chemical_formula_structural   HgH4C(N3Cl)2
_chemical_formula_sum   'Hg4 H16 C4 N24 Cl8'
_cell_volume   725.60138839
_cell_formula_units_Z   4
loop_
 _symmetry_equiv_pos_site_id
 _symmetry_equiv_pos_as_xyz
  1  'x, y, z'
loop_
 _atom_site_type_symbol
 _atom_site_label
 _atom_site_symmetry_multiplicity
 _atom_site_fract_x
 _atom_site_fract_y
 _atom_site_fract_z
 _atom_site_occupancy
  Hg  Hg0  1  0.32344000  0.38658000  0.40295000  1.0
  Hg  Hg1  1  0.67656000  0.11341000  0.90295000  1.0
  Hg  Hg2  1  0.67656000  0.61341000  0.59705000  1.0
  Hg  Hg3  1  0.32344000  0.88659000  0.09705000  1.0
  H  H4  1  0.67599000  0.33163000  0.06268000  1.0
  H  H5  1  0.32401000  0.16836000  0.56268000  1.0
  H  H6  1  0.32401000  0.66837000  0.93732000  1.0
  H  H7  1  0.67599000  0.83163000  0.43732000  1.0
  H  H8  1  0.35342000  0.42367000  0.03643000  1.0
  H  H9  1  0.64659000  0.07633000  0.53643000  1.0
  H  H10  1  0.64659000  0.57633000  0.96357000  1.0
  H  H11  1  0.35341000  0.92367000  0.46357000  1.0
  H  H12  1  0.76611000  0.59334000  0.17302000  1.0
  H  H13  1  0.23388000  0.90666000  0.67301000  1.0
  H  H14  1  0.23389000  0.40667000  0.82698000  1.0
  H  H15  1  0.76612000  0.09334000  0.32699000  1.0
  H  H16  1  0.71314000  0.58884000  0.27116000  1.0
  H  H17  1  0.28686000  0.91116000  0.77116000  1.0
  H  H18  1  0.28686000  0.41116000  0.72884000  1.0
  H  H19  1  0.71314000  0.08884000  0.22884000  1.0
  C  C20  1  0.45931000  0.45018000  0.21200000  1.0
  C  C21  1  0.54068000  0.04981000  0.71199000  1.0
  C  C22  1  0.54068000  0.54981000  0.78800000  1.0
  C  C23  1  0.45931000  0.95018000  0.28801000  1.0
  N  N24  1  0.29217000  0.38620000  0.26604000  1.0
  N  N25  1  0.70783000  0.11380000  0.76604000  1.0
  N  N26  1  0.70784000  0.61381000  0.73396000  1.0
  N  N27  1  0.29216000  0.88620000  0.23396000  1.0
  N  N28  1  0.12049000  0.28800000  0.23099000  1.0
  N  N29  1  0.87951000  0.21200000  0.73099000  1.0
  N  N30  1  0.87951000  0.71201000  0.76901000  1.0
  N  N31  1  0.12049000  0.78800000  0.26901000  1.0
  N  N32  1  0.17367000  0.28702000  0.15937000  1.0
  N  N33  1  0.82633000  0.21299000  0.65936000  1.0
  N  N34  1  0.82633000  0.71299000  0.84064000  1.0
  N  N35  1  0.17367000  0.78701000  0.34064000  1.0
  N  N36  1  0.38729000  0.38851000  0.14559000  1.0
  N  N37  1  0.61270000  0.11149000  0.64559000  1.0
  N  N38  1  0.61270000  0.61150000  0.85440000  1.0
  N  N39  1  0.38730000  0.88851000  0.35441000  1.0
  N  N40  1  0.52988000  0.41297000  0.07662000  1.0
  N  N41  1  0.47012000  0.08702000  0.57662000  1.0
  N  N42  1  0.47012000  0.58703000  0.92338000  1.0
  N  N43  1  0.52990000  0.91298000  0.42339000  1.0
  N  N44  1  0.65253000  0.55473000  0.21906000  1.0
  N  N45  1  0.34747000  0.94528000  0.71907000  1.0
  N  N46  1  0.34746000  0.44528000  0.78094000  1.0
  N  N47  1  0.65253000  0.05473000  0.28093000  1.0
  Cl  Cl48  1  0.00045000  0.19488000  0.43196000  1.0
  Cl  Cl49  1  0.99956000  0.30511000  0.93196000  1.0
  Cl  Cl50  1  0.99955000  0.80511000  0.56804000  1.0
  Cl  Cl51  1  0.00045000  0.69488000  0.06804000  1.0
  Cl  Cl52  1  0.72912000  0.55666000  0.41268000  1.0
  Cl  Cl53  1  0.27088000  0.94334000  0.91268000  1.0
  Cl  Cl54  1  0.27088000  0.44334000  0.58732000  1.0
  Cl  Cl55  1  0.72912000  0.05666000  0.08732000  1.0
