# generated using pymatgen
data_Cu2H4C5SBrN
_symmetry_space_group_name_H-M   'P 1'
_cell_length_a   3.91855000
_cell_length_b   7.87568000
_cell_length_c   11.42820000
_cell_angle_alpha   89.99990000
_cell_angle_beta   84.41650000
_cell_angle_gamma   89.99910000
_symmetry_Int_Tables_number   1
_chemical_formula_structural   Cu2H4C5SBrN
_chemical_formula_sum   'Cu4 H8 C10 S2 Br2 N2'
_cell_volume   351.01514549
_cell_formula_units_Z   2
loop_
 _symmetry_equiv_pos_site_id
 _symmetry_equiv_pos_as_xyz
  1  'x, y, z'
loop_
 _atom_site_type_symbol
 _atom_site_label
 _atom_site_symmetry_multiplicity
 _atom_site_fract_x
 _atom_site_fract_y
 _atom_site_fract_z
 _atom_site_occupancy
  Cu  Cu0  1  0.43306000  0.36859000  0.83297000  1.0
  Cu  Cu1  1  0.43305000  0.63141000  0.33297000  1.0
  Cu  Cu2  1  0.87192000  0.48504000  0.62976000  1.0
  Cu  Cu3  1  0.87193000  0.51496000  0.12976000  1.0
  H  H4  1  0.10267000  0.68136000  0.81690000  1.0
  H  H5  1  0.10269000  0.31863000  0.31690000  1.0
  H  H6  1  0.16426000  0.98178000  0.87316000  1.0
  H  H7  1  0.16425000  0.01821000  0.37317000  1.0
  H  H8  1  0.71829000  0.12188000  0.55532000  1.0
  H  H9  1  0.71824000  0.87813000  0.05533000  1.0
  H  H10  1  0.68265000  0.81159000  0.50971000  1.0
  H  H11  1  0.68264000  0.18842000  0.00971000  1.0
  C  C12  1  0.02132000  0.78188000  0.76048000  1.0
  C  C13  1  0.02131000  0.21812000  0.26048000  1.0
  C  C14  1  0.05484000  0.95025000  0.79186000  1.0
  C  C15  1  0.05481000  0.04973000  0.29186000  1.0
  C  C16  1  0.94200000  0.07757000  0.71901000  1.0
  C  C17  1  0.94196000  0.92242000  0.21902000  1.0
  C  C18  1  0.80831000  0.02734000  0.61487000  1.0
  C  C19  1  0.80827000  0.97267000  0.11488000  1.0
  C  C20  1  0.78664000  0.85528000  0.58973000  1.0
  C  C21  1  0.78663000  0.14474000  0.08973000  1.0
  S  S22  1  0.95331000  0.29170000  0.76459000  1.0
  S  S23  1  0.95328000  0.70830000  0.26459000  1.0
  Br  Br24  1  0.43828000  0.57060000  0.98830000  1.0
  Br  Br25  1  0.43829000  0.42941000  0.48830000  1.0
  N  N26  1  0.88832000  0.73211000  0.66108000  1.0
  N  N27  1  0.88832000  0.26790000  0.16108000  1.0
