# generated using pymatgen
data_CdH12C15N3O5
_symmetry_space_group_name_H-M   'P 1'
_cell_length_a   9.42220000
_cell_length_b   9.71511000
_cell_length_c   10.08480000
_cell_angle_alpha   76.66130000
_cell_angle_beta   89.58100000
_cell_angle_gamma   67.20070000
_symmetry_Int_Tables_number   1
_chemical_formula_structural   CdH12C15N3O5
_chemical_formula_sum   'Cd2 H24 C30 N6 O10'
_cell_volume   824.58048910
_cell_formula_units_Z   2
loop_
 _symmetry_equiv_pos_site_id
 _symmetry_equiv_pos_as_xyz
  1  'x, y, z'
loop_
 _atom_site_type_symbol
 _atom_site_label
 _atom_site_symmetry_multiplicity
 _atom_site_fract_x
 _atom_site_fract_y
 _atom_site_fract_z
 _atom_site_occupancy
  Cd  Cd0  1  0.02395000  0.32968000  0.93013000  1.0
  Cd  Cd1  1  0.97605000  0.67032000  0.06987000  1.0
  H  H2  1  0.65986000  0.18142000  0.85231000  1.0
  H  H3  1  0.34014000  0.81858000  0.14769000  1.0
  H  H4  1  0.51815000  0.11711000  0.92548000  1.0
  H  H5  1  0.48185000  0.88289000  0.07452000  1.0
  H  H6  1  0.41898000  0.16904000  0.11906000  1.0
  H  H7  1  0.58102000  0.83095000  0.88094000  1.0
  H  H8  1  0.37151000  0.33267000  0.28540000  1.0
  H  H9  1  0.62849000  0.66733000  0.71461000  1.0
  H  H10  1  0.52840000  0.49280000  0.28044000  1.0
  H  H11  1  0.47160000  0.50720000  0.71956000  1.0
  H  H12  1  0.96111000  0.65230000  0.67679000  1.0
  H  H13  1  0.03890000  0.34770000  0.32321000  1.0
  H  H14  1  0.70341000  0.52661000  0.42139000  1.0
  H  H15  1  0.29658000  0.47339000  0.57861000  1.0
  H  H16  1  0.81462000  0.29596000  0.66775000  1.0
  H  H17  1  0.18537000  0.70404000  0.33224000  1.0
  H  H18  1  0.76098000  0.76295000  0.32003000  1.0
  H  H19  1  0.23902000  0.23705000  0.67997000  1.0
  H  H20  1  0.87604000  0.81425000  0.42092000  1.0
  H  H21  1  0.12397000  0.18575000  0.57908000  1.0
  H  H22  1  0.75824000  0.97111000  0.58840000  1.0
  H  H23  1  0.24176000  0.02889000  0.41161000  1.0
  H  H24  1  0.47969000  0.84593000  0.34128000  1.0
  H  H25  1  0.52031000  0.15407000  0.65873000  1.0
  C  C26  1  0.75591000  0.96396000  0.99978000  1.0
  C  C27  1  0.24409000  0.03604000  0.00022000  1.0
  C  C28  1  0.62814000  0.12480000  0.94784000  1.0
  C  C29  1  0.37186000  0.87520000  0.05216000  1.0
  C  C30  1  0.48988000  0.23302000  0.12845000  1.0
  C  C31  1  0.51012000  0.76698000  0.87155000  1.0
  C  C32  1  0.46321000  0.32524000  0.21837000  1.0
  C  C33  1  0.53679000  0.67476000  0.78163000  1.0
  C  C34  1  0.55274000  0.41158000  0.21624000  1.0
  C  C35  1  0.44726000  0.58843000  0.78375000  1.0
  C  C36  1  0.67136000  0.40128000  0.13157000  1.0
  C  C37  1  0.32864000  0.59872000  0.86843000  1.0
  C  C38  1  0.70537000  0.29680000  0.04334000  1.0
  C  C39  1  0.29463000  0.70320000  0.95666000  1.0
  C  C40  1  0.75394000  0.50581000  0.13257000  1.0
  C  C41  1  0.24607000  0.49419000  0.86743000  1.0
  C  C42  1  0.90744000  0.58460000  0.64229000  1.0
  C  C43  1  0.09257000  0.41539000  0.35770000  1.0
  C  C44  1  0.77026000  0.51649000  0.51286000  1.0
  C  C45  1  0.22973000  0.48352000  0.48714000  1.0
  C  C46  1  0.82776000  0.40426000  0.63303000  1.0
  C  C47  1  0.17223000  0.59575000  0.36697000  1.0
  C  C48  1  0.77825000  0.77960000  0.42146000  1.0
  C  C49  1  0.22175000  0.22040000  0.57854000  1.0
  C  C50  1  0.63453000  0.89705000  0.45916000  1.0
  C  C51  1  0.36548000  0.10295000  0.54084000  1.0
  C  C52  1  0.64504000  0.98430000  0.54851000  1.0
  C  C53  1  0.35496000  0.01571000  0.45149000  1.0
  C  C54  1  0.48839000  0.91362000  0.41105000  1.0
  C  C55  1  0.51162000  0.08639000  0.58895000  1.0
  N  N56  1  0.60349000  0.22214000  0.04344000  1.0
  N  N57  1  0.39651000  0.77786000  0.95656000  1.0
  N  N58  1  0.91330000  0.44820000  0.71243000  1.0
  N  N59  1  0.08671000  0.55180000  0.28756000  1.0
  N  N60  1  0.82256000  0.62947000  0.52038000  1.0
  N  N61  1  0.17744000  0.37053000  0.47962000  1.0
  O  O62  1  0.82286000  0.92300000  0.11847000  1.0
  O  O63  1  0.17714000  0.07700000  0.88153000  1.0
  O  O64  1  0.78474000  0.87762000  0.91567000  1.0
  O  O65  1  0.21526000  0.12238000  0.08433000  1.0
  O  O66  1  0.81046000  0.26757000  0.96366000  1.0
  O  O67  1  0.18954000  0.73243000  0.03634000  1.0
  O  O68  1  0.88168000  0.48069000  0.07410000  1.0
  O  O69  1  0.11832000  0.51930000  0.92590000  1.0
  O  O70  1  0.69721000  0.61403000  0.19051000  1.0
  O  O71  1  0.30280000  0.38597000  0.80949000  1.0
