# generated using pymatgen
data_CdH6C8(BrN2)2
_symmetry_space_group_name_H-M   'P 1'
_cell_length_a   7.85896000
_cell_length_b   8.34965000
_cell_length_c   8.34964000
_cell_angle_alpha   89.80370000
_cell_angle_beta   90.00010000
_cell_angle_gamma   89.99980000
_symmetry_Int_Tables_number   1
_chemical_formula_structural   CdH6C8(BrN2)2
_chemical_formula_sum   'Cd2 H12 C16 Br4 N8'
_cell_volume   547.89653211
_cell_formula_units_Z   2
loop_
 _symmetry_equiv_pos_site_id
 _symmetry_equiv_pos_as_xyz
  1  'x, y, z'
loop_
 _atom_site_type_symbol
 _atom_site_label
 _atom_site_symmetry_multiplicity
 _atom_site_fract_x
 _atom_site_fract_y
 _atom_site_fract_z
 _atom_site_occupancy
  Cd  Cd0  1  0.25000000  0.01100000  0.01100000  1.0
  Cd  Cd1  1  0.75000000  0.98900000  0.98900000  1.0
  H  H2  1  0.25000000  0.62418000  0.02821000  1.0
  H  H3  1  0.75000000  0.37581000  0.97179000  1.0
  H  H4  1  0.24999000  0.02821000  0.62419000  1.0
  H  H5  1  0.75000000  0.97179000  0.37582000  1.0
  H  H6  1  0.25000000  0.39572000  0.21859000  1.0
  H  H7  1  0.75000000  0.60427000  0.78142000  1.0
  H  H8  1  0.25000000  0.21858000  0.39573000  1.0
  H  H9  1  0.75000000  0.78142000  0.60427000  1.0
  H  H10  1  0.25000000  0.75949000  0.58972000  1.0
  H  H11  1  0.75000000  0.24052000  0.41027000  1.0
  H  H12  1  0.25000000  0.58973000  0.75948000  1.0
  H  H13  1  0.75000000  0.41028000  0.24052000  1.0
  C  C14  1  0.25000000  0.64477000  0.15670000  1.0
  C  C15  1  0.75000000  0.35522000  0.84330000  1.0
  C  C16  1  0.25000000  0.15670000  0.64478000  1.0
  C  C17  1  0.75000000  0.84330000  0.35523000  1.0
  C  C18  1  0.25000000  0.51746000  0.26495000  1.0
  C  C19  1  0.75000000  0.48254000  0.73505000  1.0
  C  C20  1  0.25000000  0.26495000  0.51746000  1.0
  C  C21  1  0.75000000  0.73505000  0.48255000  1.0
  C  C22  1  0.25000000  0.55328000  0.42802000  1.0
  C  C23  1  0.75000000  0.44672000  0.57198000  1.0
  C  C24  1  0.25000000  0.42803000  0.55328000  1.0
  C  C25  1  0.75000000  0.57198000  0.44672000  1.0
  C  C26  1  0.25000000  0.71800000  0.46606000  1.0
  C  C27  1  0.75000000  0.28200000  0.53393000  1.0
  C  C28  1  0.25000000  0.46606000  0.71801000  1.0
  C  C29  1  0.75000000  0.53395000  0.28200000  1.0
  Br  Br30  1  0.99115000  0.16687000  0.16687000  1.0
  Br  Br31  1  0.49115000  0.83312000  0.83313000  1.0
  Br  Br32  1  0.50886000  0.16688000  0.16687000  1.0
  Br  Br33  1  0.00885000  0.83312000  0.83313000  1.0
  N  N34  1  0.25000000  0.79786000  0.20296000  1.0
  N  N35  1  0.75000000  0.20213000  0.79703000  1.0
  N  N36  1  0.25000000  0.20297000  0.79786000  1.0
  N  N37  1  0.75000000  0.79704000  0.20214000  1.0
  N  N38  1  0.25000000  0.83596000  0.35793000  1.0
  N  N39  1  0.75000000  0.16405000  0.64206000  1.0
  N  N40  1  0.25000000  0.35794000  0.83595000  1.0
  N  N41  1  0.75000000  0.64207000  0.16405000  1.0
