# generated using pymatgen
data_MnH8(CN2)6
_symmetry_space_group_name_H-M   'P 1'
_cell_length_a   5.12827000
_cell_length_b   6.20351000
_cell_length_c   8.66349000
_cell_angle_alpha   77.50800000
_cell_angle_beta   86.18900000
_cell_angle_gamma   82.13460000
_symmetry_Int_Tables_number   1
_chemical_formula_structural   MnH8(CN2)6
_chemical_formula_sum   'Mn1 H8 C6 N12'
_cell_volume   266.36392479
_cell_formula_units_Z   1
loop_
 _symmetry_equiv_pos_site_id
 _symmetry_equiv_pos_as_xyz
  1  'x, y, z'
loop_
 _atom_site_type_symbol
 _atom_site_label
 _atom_site_symmetry_multiplicity
 _atom_site_fract_x
 _atom_site_fract_y
 _atom_site_fract_z
 _atom_site_occupancy
  Mn  Mn0  1  0.99141000  0.01786000  0.99144000  1.0
  H  H1  1  0.43096000  0.03090000  0.68211000  1.0
  H  H2  1  0.56923000  0.97117000  0.31265000  1.0
  H  H3  1  0.85113000  0.60183000  0.83982000  1.0
  H  H4  1  0.14110000  0.40902000  0.15821000  1.0
  H  H5  1  0.00751000  0.32731000  0.65996000  1.0
  H  H6  1  0.99101000  0.67108000  0.34467000  1.0
  H  H7  1  0.28516000  0.38479000  0.52555000  1.0
  H  H8  1  0.71336000  0.61153000  0.47811000  1.0
  C  C9  1  0.30331000  0.90280000  0.69208000  1.0
  C  C10  1  0.69649000  0.09927000  0.30458000  1.0
  C  C11  1  0.00616000  0.68950000  0.77407000  1.0
  C  C12  1  0.98919000  0.31737000  0.22382000  1.0
  C  C13  1  0.09322000  0.45391000  0.56987000  1.0
  C  C14  1  0.90582000  0.54330000  0.43387000  1.0
  N  N15  1  0.13706000  0.63088000  0.64701000  1.0
  N  N16  1  0.86386000  0.36752000  0.35501000  1.0
  N  N17  1  0.32665000  0.76558000  0.59243000  1.0
  N  N18  1  0.67729000  0.22960000  0.40889000  1.0
  N  N19  1  0.10653000  0.86333000  0.80614000  1.0
  N  N20  1  0.88776000  0.14672000  0.18798000  1.0
  N  N21  1  0.26552000  0.18994000  0.93687000  1.0
  N  N22  1  0.73822000  0.79858000  0.05682000  1.0
  N  N23  1  0.48934000  0.21293000  0.90534000  1.0
  N  N24  1  0.51673000  0.77810000  0.09791000  1.0
  N  N25  1  0.72054000  0.23421000  0.87532000  1.0
  N  N26  1  0.29543000  0.75100000  0.13948000  1.0
