# generated using pymatgen
data_CdH22C22(N4O3)2
_symmetry_space_group_name_H-M   'P 1'
_cell_length_a   8.62222000
_cell_length_b   9.65510000
_cell_length_c   16.16750000
_cell_angle_alpha   87.88970000
_cell_angle_beta   85.26950000
_cell_angle_gamma   63.47990000
_symmetry_Int_Tables_number   1
_chemical_formula_structural   CdH22C22(N4O3)2
_chemical_formula_sum   'Cd2 H44 C44 N16 O12'
_cell_volume   1200.19562719
_cell_formula_units_Z   2
loop_
 _symmetry_equiv_pos_site_id
 _symmetry_equiv_pos_as_xyz
  1  'x, y, z'
loop_
 _atom_site_type_symbol
 _atom_site_label
 _atom_site_symmetry_multiplicity
 _atom_site_fract_x
 _atom_site_fract_y
 _atom_site_fract_z
 _atom_site_occupancy
  Cd  Cd0  1  0.13332000  0.73339000  0.75001000  1.0
  Cd  Cd1  1  0.86668000  0.26661000  0.24999000  1.0
  H  H2  1  0.07402000  0.16580000  0.50325000  1.0
  H  H3  1  0.76026000  0.16581000  0.99677000  1.0
  H  H4  1  0.92598000  0.83420000  0.49675000  1.0
  H  H5  1  0.23974000  0.83419000  0.00323000  1.0
  H  H6  1  0.28583000  0.06776000  0.53536000  1.0
  H  H7  1  0.64652000  0.06775000  0.96465000  1.0
  H  H8  1  0.71417000  0.93224000  0.46464000  1.0
  H  H9  1  0.35348000  0.93225000  0.03535000  1.0
  H  H10  1  0.20600000  0.37160000  0.49190000  1.0
  H  H11  1  0.42243000  0.37158000  0.00813000  1.0
  H  H12  1  0.79400000  0.62840000  0.50811000  1.0
  H  H13  1  0.57757000  0.62843000  0.99187000  1.0
  H  H14  1  0.21446000  0.60021000  0.93336000  1.0
  H  H15  1  0.18534000  0.60026000  0.56664000  1.0
  H  H16  1  0.78554000  0.39979000  0.06664000  1.0
  H  H17  1  0.81466000  0.39974000  0.43335000  1.0
  H  H18  1  0.02810000  0.45768000  0.78954000  1.0
  H  H19  1  0.51427000  0.45765000  0.71047000  1.0
  H  H20  1  0.97190000  0.54233000  0.21046000  1.0
  H  H21  1  0.48573000  0.54234000  0.28953000  1.0
  H  H22  1  0.04816000  0.22007000  0.72446000  1.0
  H  H23  1  0.73182000  0.22003000  0.77555000  1.0
  H  H24  1  0.95185000  0.77993000  0.27554000  1.0
  H  H25  1  0.26818000  0.77997000  0.22445000  1.0
  H  H26  1  0.80907000  0.26546000  0.56521000  1.0
  H  H27  1  0.92564000  0.26544000  0.93475000  1.0
  H  H28  1  0.19093000  0.73454000  0.43479000  1.0
  H  H29  1  0.07436000  0.73456000  0.06525000  1.0
  H  H30  1  0.52049000  0.26908000  0.58595000  1.0
  H  H31  1  0.21056000  0.26907000  0.91403000  1.0
  H  H32  1  0.47951000  0.73092000  0.41405000  1.0
  H  H33  1  0.78944000  0.73093000  0.08597000  1.0
  H  H34  1  0.49219000  0.04525000  0.66074000  1.0
  H  H35  1  0.46276000  0.04522000  0.83922000  1.0
  H  H36  1  0.50781000  0.95475000  0.33926000  1.0
  H  H37  1  0.53725000  0.95478000  0.16078000  1.0
  H  H38  1  0.75758000  0.83413000  0.71484000  1.0
  H  H39  1  0.40842000  0.83408000  0.78511000  1.0
  H  H40  1  0.24242000  0.16587000  0.28516000  1.0
  H  H41  1  0.59158000  0.16592000  0.21489000  1.0
  H  H42  1  0.20632000  0.91940000  0.62111000  1.0
  H  H43  1  0.87436000  0.91941000  0.87889000  1.0
  H  H44  1  0.79368000  0.08060000  0.37889000  1.0
  H  H45  1  0.12564000  0.08059000  0.12110000  1.0
  C  C46  1  0.94240000  0.04152000  0.62529000  1.0
  C  C47  1  0.01621000  0.04154000  0.87469000  1.0
  C  C48  1  0.05760000  0.95848000  0.37471000  1.0
  C  C49  1  0.98379000  0.95847000  0.12531000  1.0
  C  C50  1  0.14905000  0.13190000  0.55887000  1.0
  C  C51  1  0.71916000  0.13190000  0.94114000  1.0
  C  C52  1  0.85095000  0.86810000  0.44113000  1.0
  C  C53  1  0.28083000  0.86810000  0.05886000  1.0
  C  C54  1  0.12729000  0.27625000  0.60231000  1.0
  C  C55  1  0.59653000  0.27621000  0.89771000  1.0
  C  C56  1  0.87271000  0.72375000  0.39769000  1.0
  C  C57  1  0.40347000  0.72379000  0.10229000  1.0
  C  C58  1  0.16332000  0.38694000  0.55766000  1.0
  C  C59  1  0.44978000  0.38687000  0.94236000  1.0
  C  C60  1  0.83667000  0.61306000  0.44234000  1.0
  C  C61  1  0.55022000  0.61313000  0.05764000  1.0
  C  C62  1  0.15147000  0.51523000  0.59887000  1.0
  C  C63  1  0.33333333  0.51515000  0.90114000  1.0
  C  C64  1  0.84853000  0.48477000  0.40113000  1.0
  C  C65  1  0.66666667  0.48485000  0.09886000  1.0
  C  C66  1  0.06670000  0.43471000  0.72357000  1.0
  C  C67  1  0.49865000  0.43468000  0.77644000  1.0
  C  C68  1  0.93331000  0.56529000  0.27643000  1.0
  C  C69  1  0.50135000  0.56532000  0.22356000  1.0
  C  C70  1  0.07682000  0.30266000  0.68673000  1.0
  C  C71  1  0.62056000  0.30262000  0.81328000  1.0
  C  C72  1  0.92318000  0.69734000  0.31327000  1.0
  C  C73  1  0.37944000  0.69738000  0.18672000  1.0
  C  C74  1  0.79541000  0.16939000  0.59638000  1.0
  C  C75  1  0.03538000  0.16938000  0.90356000  1.0
  C  C76  1  0.20459000  0.83061000  0.40362000  1.0
  C  C77  1  0.96462000  0.83062000  0.09644000  1.0
  C  C78  1  0.63354000  0.17181000  0.60898000  1.0
  C  C79  1  0.19489000  0.17177000  0.89096000  1.0
  C  C80  1  0.36646000  0.82819000  0.39102000  1.0
  C  C81  1  0.80512000  0.82823000  0.10904000  1.0
  C  C82  1  0.61618000  0.04958000  0.65116000  1.0
  C  C83  1  0.33444000  0.04954000  0.84878000  1.0
  C  C84  1  0.38382000  0.95042000  0.34884000  1.0
  C  C85  1  0.66556000  0.95046000  0.15122000  1.0
  C  C86  1  0.76419000  0.93120000  0.68067000  1.0
  C  C87  1  0.30474000  0.93119000  0.81927000  1.0
  C  C88  1  0.23581000  0.06880000  0.31933000  1.0
  C  C89  1  0.69526000  0.06881000  0.18073000  1.0
  N  N90  1  0.92361000  0.92600000  0.66959000  1.0
  N  N91  1  0.15050000  0.92601000  0.83039000  1.0
  N  N92  1  0.07639000  0.07400000  0.33041000  1.0
  N  N93  1  0.84949000  0.07400000  0.16961000  1.0
  N  N94  1  0.10626000  0.02709000  0.61068000  1.0
  N  N95  1  0.86678000  0.02709000  0.88933000  1.0
  N  N96  1  0.89374000  0.97291000  0.38932000  1.0
  N  N97  1  0.13322000  0.97291000  0.11067000  1.0
  N  N98  1  0.10421000  0.53945000  0.68068000  1.0
  N  N99  1  0.35639000  0.53940000  0.81933000  1.0
  N  N100  1  0.89579000  0.46055000  0.31932000  1.0
  N  N101  1  0.64361000  0.46060000  0.18067000  1.0
  N  N102  1  0.50157000  0.68562000  0.60567000  1.0
  N  N103  1  0.81282000  0.68558000  0.89434000  1.0
  N  N104  1  0.49843000  0.31438000  0.39433000  1.0
  N  N105  1  0.18718000  0.31442000  0.10566000  1.0
  O  O106  1  0.61110000  0.54666000  0.59795000  1.0
  O  O107  1  0.84224000  0.54662000  0.90207000  1.0
  O  O108  1  0.38889000  0.45335000  0.40205000  1.0
  O  O109  1  0.15776000  0.45338000  0.09793000  1.0
  O  O110  1  0.53762000  0.79567000  0.58651000  1.0
  O  O111  1  0.66666667  0.79563000  0.91348000  1.0
  O  O112  1  0.46238000  0.20433000  0.41349000  1.0
  O  O113  1  0.33333333  0.20437000  0.08652000  1.0
  O  O114  1  0.34314000  0.71811000  0.63359000  1.0
  O  O115  1  0.93877000  0.71807000  0.86644000  1.0
  O  O116  1  0.65686000  0.28189000  0.36641000  1.0
  O  O117  1  0.06122000  0.28193000  0.13356000  1.0
