# generated using pymatgen
data_ZnH13C18N2O5
_symmetry_space_group_name_H-M   'P 1'
_cell_length_a   11.12820000
_cell_length_b   16.44210000
_cell_length_c   17.80620000
_cell_angle_alpha   91.22990000
_cell_angle_beta   91.18240000
_cell_angle_gamma   104.20930000
_symmetry_Int_Tables_number   1
_chemical_formula_structural   ZnH13C18N2O5
_chemical_formula_sum   'Zn2 H26 C36 N4 O10'
_cell_volume   3156.48477750
_cell_formula_units_Z   2
loop_
 _symmetry_equiv_pos_site_id
 _symmetry_equiv_pos_as_xyz
  1  'x, y, z'
loop_
 _atom_site_type_symbol
 _atom_site_label
 _atom_site_symmetry_multiplicity
 _atom_site_fract_x
 _atom_site_fract_y
 _atom_site_fract_z
 _atom_site_occupancy
  Zn  Zn0  1  0.52015000  0.58392000  0.50633000  1.0
  Zn  Zn1  1  0.49099000  0.41490000  0.49877000  1.0
  H  H2  1  0.62177000  0.87825000  0.39789000  1.0
  H  H3  1  0.48377000  0.62801000  0.74005000  1.0
  H  H4  1  0.40964000  0.85284000  0.60091000  1.0
  H  H5  1  0.64731000  0.16049000  0.41303000  1.0
  H  H6  1  0.42206000  0.70209000  0.60229000  1.0
  H  H7  1  0.63096000  0.31061000  0.41679000  1.0
  H  H8  1  0.62189000  0.72573000  0.40766000  1.0
  H  H9  1  0.36151000  0.26212000  0.57730000  1.0
  H  H10  1  0.77900000  0.40229000  0.56972000  1.0
  H  H11  1  0.87828000  0.38542000  0.69568000  1.0
  H  H12  1  0.01527000  0.38366000  0.64566000  1.0
  H  H13  1  0.36455000  0.10953000  0.58107000  1.0
  H  H14  1  0.88056000  0.29990000  0.63269000  1.0
  H  H15  1  0.23030000  0.59251000  0.58346000  1.0
  H  H16  1  0.12756000  0.60011000  0.70901000  1.0
  H  H17  1  0.99262000  0.60621000  0.65551000  1.0
  H  H18  1  0.12770000  0.69012000  0.65441000  1.0
  H  H19  1  0.45272000  0.30767000  0.14101000  1.0
  H  H20  1  0.45098000  0.68766000  0.85225000  1.0
  H  H21  1  0.93887000  0.60263000  0.50289000  1.0
  H  H22  1  0.07302000  0.39730000  0.49501000  1.0
  H  H23  1  0.41066000  0.62101000  0.13064000  1.0
  H  H24  1  0.42229000  0.36374000  0.88056000  1.0
  H  H25  1  0.44282000  0.62326000  0.27062000  1.0
  H  H26  1  0.45764000  0.36345000  0.74168000  1.0
  H  H27  1  0.47611000  0.36896000  0.25839000  1.0
  C  C28  1  0.49730000  0.49706000  0.65058000  1.0
  C  C29  1  0.57395000  0.26324000  0.45171000  1.0
  C  C30  1  0.57710000  0.75732000  0.44914000  1.0
  C  C31  1  0.42227000  0.23594000  0.54188000  1.0
  C  C32  1  0.57638000  0.84136000  0.44402000  1.0
  C  C33  1  0.42473000  0.15203000  0.54382000  1.0
  C  C34  1  0.51582000  0.87810000  0.49917000  1.0
  C  C35  1  0.50618000  0.12259000  0.49676000  1.0
  C  C36  1  0.51323000  0.96362000  0.49706000  1.0
  C  C37  1  0.51064000  0.03734000  0.49679000  1.0
  C  C38  1  0.26403000  0.46890000  0.51198000  1.0
  C  C39  1  0.48651000  0.49789000  0.35563000  1.0
  C  C40  1  0.74718000  0.53105000  0.50999000  1.0
  C  C41  1  0.13117000  0.45431000  0.52086000  1.0
  C  C42  1  0.87998000  0.54421000  0.52191000  1.0
  C  C43  1  0.07430000  0.50817000  0.55827000  1.0
  C  C44  1  0.93580000  0.48770000  0.55556000  1.0
  C  C45  1  0.42464000  0.56595000  0.15920000  1.0
  C  C46  1  0.43404000  0.42106000  0.84891000  1.0
  C  C47  1  0.44310000  0.56752000  0.23659000  1.0
  C  C48  1  0.45438000  0.42086000  0.77231000  1.0
  C  C49  1  0.46321000  0.49656000  0.27232000  1.0
  C  C50  1  0.42503000  0.49373000  0.11491000  1.0
  C  C51  1  0.47317000  0.49585000  0.73312000  1.0
  C  C52  1  0.46124000  0.42380000  0.22961000  1.0
  C  C53  1  0.46793000  0.57005000  0.77135000  1.0
  C  C54  1  0.44159000  0.42164000  0.15205000  1.0
  C  C55  1  0.44452000  0.57024000  0.84788000  1.0
  C  C56  1  0.91373000  0.36817000  0.64167000  1.0
  C  C57  1  0.09422000  0.62144000  0.65583000  1.0
  C  C58  1  0.42950000  0.49549000  0.88876000  1.0
  C  C59  1  0.41562000  0.49395000  0.03586000  1.0
  C  C60  1  0.41704000  0.49569000  0.96734000  1.0
  C  C61  1  0.45801000  0.82715000  0.55733000  1.0
  C  C62  1  0.58246000  0.18039000  0.44993000  1.0
  C  C63  1  0.46416000  0.74395000  0.55821000  1.0
  N  N64  1  0.52243000  0.70970000  0.50532000  1.0
  N  N65  1  0.49510000  0.29026000  0.49660000  1.0
  N  N66  1  0.87279000  0.41127000  0.57948000  1.0
  N  N67  1  0.13655000  0.58282000  0.59074000  1.0
  O  O68  1  0.54015000  0.56858000  0.62199000  1.0
  O  O69  1  0.43713000  0.64152000  0.88694000  1.0
  O  O70  1  0.51063000  0.43289000  0.38400000  1.0
  O  O71  1  0.47158000  0.42635000  0.61544000  1.0
  O  O72  1  0.48001000  0.56413000  0.39226000  1.0
  O  O73  1  0.33350000  0.54262000  0.52980000  1.0
  O  O74  1  0.67775000  0.45637000  0.51980000  1.0
  O  O75  1  0.30685000  0.40819000  0.48679000  1.0
  O  O76  1  0.70366000  0.59314000  0.49070000  1.0
  O  O77  1  0.43925000  0.35156000  0.10838000  1.0
