# generated using pymatgen
data_NiH24C32N6(Cl2O3)2
_symmetry_space_group_name_H-M   'P 1'
_cell_length_a   10.87670000
_cell_length_b   12.07960000
_cell_length_c   14.15240000
_cell_angle_alpha   106.53900000
_cell_angle_beta   89.99070000
_cell_angle_gamma   116.76100000
_symmetry_Int_Tables_number   1
_chemical_formula_structural   NiH24C32N6(Cl2O3)2
_chemical_formula_sum   'Ni2 H48 C64 N12 Cl8 O12'
_cell_volume   1573.67844287
_cell_formula_units_Z   2
loop_
 _symmetry_equiv_pos_site_id
 _symmetry_equiv_pos_as_xyz
  1  'x, y, z'
loop_
 _atom_site_type_symbol
 _atom_site_label
 _atom_site_symmetry_multiplicity
 _atom_site_fract_x
 _atom_site_fract_y
 _atom_site_fract_z
 _atom_site_occupancy
  Ni  Ni0  1  0.69854000  0.00002000  0.25006000  1.0
  Ni  Ni1  1  0.30146000  0.99998000  0.74994000  1.0
  H  H2  1  0.54567000  0.06350000  0.12516000  1.0
  H  H3  1  0.51797000  0.06353000  0.62528000  1.0
  H  H4  1  0.45434000  0.93650000  0.87484000  1.0
  H  H5  1  0.48203000  0.93647000  0.37472000  1.0
  H  H6  1  0.31952000  0.06502000  0.12008000  1.0
  H  H7  1  0.74566000  0.06517000  0.62025000  1.0
  H  H8  1  0.68049000  0.93498000  0.87992000  1.0
  H  H9  1  0.25434000  0.93483000  0.37974000  1.0
  H  H10  1  0.07311000  0.92576000  0.08832000  1.0
  H  H11  1  0.85254000  0.92568000  0.58844000  1.0
  H  H12  1  0.92689000  0.07425000  0.91168000  1.0
  H  H13  1  0.14747000  0.07433000  0.41155000  1.0
  H  H14  1  0.85051000  0.93767000  0.09528000  1.0
  H  H15  1  0.08702000  0.93756000  0.59531000  1.0
  H  H16  1  0.14948000  0.06232000  0.90472000  1.0
  H  H17  1  0.91298000  0.06243000  0.40469000  1.0
  H  H18  1  0.52234000  0.85471000  0.05795000  1.0
  H  H19  1  0.33246000  0.85461000  0.55778000  1.0
  H  H20  1  0.47766000  0.14529000  0.94206000  1.0
  H  H21  1  0.66754000  0.14540000  0.44223000  1.0
  H  H22  1  0.43591000  0.63613000  0.94027000  1.0
  H  H23  1  0.20024000  0.63598000  0.44015000  1.0
  H  H24  1  0.56409000  0.36388000  0.05974000  1.0
  H  H25  1  0.79976000  0.36402000  0.55985000  1.0
  H  H26  1  0.61895000  0.54242000  0.15898000  1.0
  H  H27  1  0.92352000  0.54252000  0.65903000  1.0
  H  H28  1  0.38104000  0.45757000  0.84102000  1.0
  H  H29  1  0.07647000  0.45748000  0.34097000  1.0
  H  H30  1  0.69472000  0.76600000  0.27014000  1.0
  H  H31  1  0.07164000  0.76602000  0.77018000  1.0
  H  H32  1  0.30527000  0.23400000  0.72987000  1.0
  H  H33  1  0.92836000  0.23398000  0.22982000  1.0
  H  H34  1  0.65625000  0.31036000  0.20128000  1.0
  H  H35  1  0.65312000  0.30983000  0.70119000  1.0
  H  H36  1  0.34376000  0.68965000  0.79871000  1.0
  H  H37  1  0.34687000  0.69015000  0.29882000  1.0
  H  H38  1  0.50176000  0.25633000  0.33133000  1.0
  H  H39  1  0.75430000  0.25611000  0.83105000  1.0
  H  H40  1  0.49825000  0.74367000  0.66867000  1.0
  H  H41  1  0.24569000  0.74387000  0.16896000  1.0
  H  H42  1  0.55124000  0.42096000  0.49507000  1.0
  H  H43  1  0.87002000  0.42101000  0.99457000  1.0
  H  H44  1  0.44877000  0.57904000  0.50493000  1.0
  H  H45  1  0.12998000  0.57898000  0.00543000  1.0
  H  H46  1  0.74805000  0.64845000  0.52978000  1.0
  H  H47  1  0.90076000  0.64847000  0.02917000  1.0
  H  H48  1  0.25194000  0.35156000  0.47022000  1.0
  H  H49  1  0.09925000  0.35152000  0.97083000  1.0
  C  C50  1  0.47714000  0.03364000  0.17946000  1.0
  C  C51  1  0.55657000  0.03366000  0.67960000  1.0
  C  C52  1  0.52286000  0.96637000  0.82054000  1.0
  C  C53  1  0.44342000  0.96633000  0.32040000  1.0
  C  C54  1  0.35009000  0.03482000  0.17769000  1.0
  C  C55  1  0.68479000  0.03485000  0.67781000  1.0
  C  C56  1  0.64991000  0.96518000  0.82231000  1.0
  C  C57  1  0.31522000  0.96515000  0.32219000  1.0
  C  C58  1  0.26553000  0.99999000  0.24994000  1.0
  C  C59  1  0.73447000  0.00001000  0.75005000  1.0
  C  C60  1  0.13004000  0.00001000  0.24992000  1.0
  C  C61  1  0.86996000  0.99999000  0.75008000  1.0
  C  C62  1  0.04445000  0.96182000  0.16029000  1.0
  C  C63  1  0.91729000  0.96179000  0.66041000  1.0
  C  C64  1  0.95555000  0.03818000  0.83971000  1.0
  C  C65  1  0.08272000  0.03822000  0.33959000  1.0
  C  C66  1  0.91808000  0.96391000  0.16317000  1.0
  C  C67  1  0.04570000  0.96379000  0.66322000  1.0
  C  C68  1  0.08192000  0.03609000  0.83683000  1.0
  C  C69  1  0.95430000  0.03621000  0.33678000  1.0
  C  C70  1  0.54238000  0.78330000  0.07794000  1.0
  C  C71  1  0.24109000  0.78321000  0.57785000  1.0
  C  C72  1  0.45762000  0.21670000  0.92206000  1.0
  C  C73  1  0.75891000  0.21679000  0.42215000  1.0
  C  C74  1  0.49513000  0.65837000  0.01104000  1.0
  C  C75  1  0.16335000  0.65827000  0.51097000  1.0
  C  C76  1  0.50487000  0.34163000  0.98896000  1.0
  C  C77  1  0.83665000  0.34173000  0.48903000  1.0
  C  C78  1  0.52274000  0.56635000  0.03554000  1.0
  C  C79  1  0.04369000  0.56633000  0.53554000  1.0
  C  C80  1  0.47725000  0.43365000  0.96446000  1.0
  C  C81  1  0.95631000  0.43368000  0.46446000  1.0
  C  C82  1  0.59522000  0.60724000  0.13172000  1.0
  C  C83  1  0.01209000  0.60729000  0.63173000  1.0
  C  C84  1  0.40478000  0.39276000  0.86828000  1.0
  C  C85  1  0.98791000  0.39272000  0.36827000  1.0
  C  C86  1  0.63866000  0.73296000  0.19555000  1.0
  C  C87  1  0.09457000  0.73297000  0.69555000  1.0
  C  C88  1  0.36133000  0.26703000  0.80445000  1.0
  C  C89  1  0.90543000  0.26704000  0.30445000  1.0
  C  C90  1  0.81052000  0.60473000  0.38557000  1.0
  C  C91  1  0.79381000  0.60448000  0.88521000  1.0
  C  C92  1  0.18948000  0.39527000  0.61442000  1.0
  C  C93  1  0.20619000  0.39552000  0.11479000  1.0
  C  C94  1  0.78532000  0.50895000  0.29340000  1.0
  C  C95  1  0.72286000  0.50853000  0.79318000  1.0
  C  C96  1  0.21469000  0.49106000  0.70660000  1.0
  C  C97  1  0.27713000  0.49146000  0.20682000  1.0
  C  C98  1  0.67320000  0.38345000  0.27319000  1.0
  C  C99  1  0.70946000  0.38302000  0.77302000  1.0
  C  C100  1  0.32681000  0.61656000  0.72680000  1.0
  C  C101  1  0.29053000  0.61697000  0.22699000  1.0
  C  C102  1  0.58888000  0.35386000  0.34593000  1.0
  C  C103  1  0.76471000  0.35363000  0.84560000  1.0
  C  C104  1  0.41113000  0.64615000  0.65407000  1.0
  C  C105  1  0.23529000  0.64636000  0.15440000  1.0
  C  C106  1  0.61617000  0.44791000  0.43859000  1.0
  C  C107  1  0.83171000  0.44781000  0.93817000  1.0
  C  C108  1  0.38384000  0.55209000  0.56140000  1.0
  C  C109  1  0.16828000  0.55219000  0.06184000  1.0
  C  C110  1  0.72651000  0.57353000  0.45844000  1.0
  C  C111  1  0.84705000  0.57342000  0.95795000  1.0
  C  C112  1  0.27349000  0.42647000  0.54156000  1.0
  C  C113  1  0.15295000  0.42657000  0.04205000  1.0
  N  N114  1  0.75827000  0.15741000  0.03973000  1.0
  N  N115  1  0.39901000  0.15732000  0.53985000  1.0
  N  N116  1  0.24173000  0.84260000  0.96027000  1.0
  N  N117  1  0.60099000  0.84268000  0.46015000  1.0
  N  N118  1  0.52324000  0.00003000  0.24997000  1.0
  N  N119  1  0.47676000  0.99997000  0.75003000  1.0
  N  N120  1  0.87318000  0.00008000  0.25000000  1.0
  N  N121  1  0.12682000  0.99992000  0.75000000  1.0
  N  N122  1  0.61485000  0.82147000  0.16856000  1.0
  N  N123  1  0.20684000  0.82145000  0.66849000  1.0
  N  N124  1  0.38515000  0.17853000  0.83144000  1.0
  N  N125  1  0.79315000  0.17855000  0.33151000  1.0
  Cl  Cl126  1  0.94562000  0.76132000  0.40912000  1.0
  Cl  Cl127  1  0.81547000  0.76110000  0.90876000  1.0
  Cl  Cl128  1  0.05437000  0.23868000  0.59087000  1.0
  Cl  Cl129  1  0.18454000  0.23889000  0.09123000  1.0
  Cl  Cl130  1  0.89531000  0.54287000  0.20581000  1.0
  Cl  Cl131  1  0.64635000  0.54229000  0.70577000  1.0
  Cl  Cl132  1  0.10469000  0.45714000  0.79419000  1.0
  Cl  Cl133  1  0.35366000  0.45770000  0.29423000  1.0
  O  O134  1  0.74325000  0.05996000  0.06656000  1.0
  O  O135  1  0.31656000  0.05967000  0.56647000  1.0
  O  O136  1  0.25674000  0.94005000  0.93343000  1.0
  O  O137  1  0.68343000  0.94032000  0.43352000  1.0
  O  O138  1  0.66571000  0.19491000  0.05128000  1.0
  O  O139  1  0.52912000  0.19501000  0.55154000  1.0
  O  O140  1  0.33429000  0.80510000  0.94872000  1.0
  O  O141  1  0.47088000  0.80499000  0.44848000  1.0
  O  O142  1  0.86340000  0.21476000  0.00133000  1.0
  O  O143  1  0.35121000  0.21469000  0.50152000  1.0
  O  O144  1  0.13661000  0.78527000  0.99868000  1.0
  O  O145  1  0.64880000  0.78531000  0.49848000  1.0
