# generated using pymatgen
data_CdH22C28(NO)4
_symmetry_space_group_name_H-M   'P 1'
_cell_length_a   9.61027000
_cell_length_b   12.97650000
_cell_length_c   13.67300000
_cell_angle_alpha   117.28600000
_cell_angle_beta   94.60000000
_cell_angle_gamma   102.90500000
_symmetry_Int_Tables_number   1
_chemical_formula_structural   CdH22C28(NO)4
_chemical_formula_sum   'Cd2 H44 C56 N8 O8'
_cell_volume   1443.93942952
_cell_formula_units_Z   2
loop_
 _symmetry_equiv_pos_site_id
 _symmetry_equiv_pos_as_xyz
  1  'x, y, z'
loop_
 _atom_site_type_symbol
 _atom_site_label
 _atom_site_symmetry_multiplicity
 _atom_site_fract_x
 _atom_site_fract_y
 _atom_site_fract_z
 _atom_site_occupancy
  Cd  Cd0  1  0.49776000  0.84997000  0.47654000  1.0
  Cd  Cd1  1  0.50224000  0.15003000  0.52346000  1.0
  H  H2  1  0.43791000  0.23824000  0.34450000  1.0
  H  H3  1  0.56210000  0.76176000  0.65550000  1.0
  H  H4  1  0.74173000  0.58303000  0.43638000  1.0
  H  H5  1  0.25827000  0.41697000  0.56362000  1.0
  H  H6  1  0.85593000  0.58545000  0.61068000  1.0
  H  H7  1  0.14407000  0.41455000  0.38932000  1.0
  H  H8  1  0.74905000  0.41037000  0.64119000  1.0
  H  H9  1  0.25095000  0.58963000  0.35881000  1.0
  H  H10  1  0.54796000  0.49249000  0.27157000  1.0
  H  H11  1  0.45204000  0.50751000  0.72842000  1.0
  H  H12  1  0.37143000  0.42397000  0.12737000  1.0
  H  H13  1  0.62857000  0.57603000  0.87263000  1.0
  H  H14  1  0.21344000  0.30917000  0.10830000  1.0
  H  H15  1  0.78655000  0.69083000  0.89170000  1.0
  H  H16  1  0.50846000  0.18103000  0.07786000  1.0
  H  H17  1  0.49154000  0.81897000  0.92214000  1.0
  H  H18  1  0.56348000  0.04612000  0.89426000  1.0
  H  H19  1  0.43652000  0.95388000  0.10574000  1.0
  H  H20  1  0.28286000  0.15525000  0.72460000  1.0
  H  H21  1  0.71713000  0.84475000  0.27540000  1.0
  H  H22  1  0.22431000  0.28811000  0.90669000  1.0
  H  H23  1  0.77569000  0.71189000  0.09331000  1.0
  H  H24  1  0.21577000  0.97567000  0.33470000  1.0
  H  H25  1  0.78423000  0.02433000  0.66530000  1.0
  H  H26  1  0.94566000  0.94917000  0.29779000  1.0
  H  H27  1  0.05434000  0.05083000  0.70221000  1.0
  H  H28  1  0.84344000  0.09830000  0.44226000  1.0
  H  H29  1  0.15656000  0.90170000  0.55774000  1.0
  H  H30  1  0.28455000  0.28662000  0.64072000  1.0
  H  H31  1  0.71545000  0.71338000  0.35928000  1.0
  H  H32  1  0.89216000  0.28167000  0.64024000  1.0
  H  H33  1  0.10785000  0.71833000  0.35976000  1.0
  H  H34  1  0.06037000  0.57532000  0.76480000  1.0
  H  H35  1  0.93963000  0.42468000  0.23520000  1.0
  H  H36  1  0.93072000  0.46807000  0.78418000  1.0
  H  H37  1  0.06929000  0.53193000  0.21582000  1.0
  H  H38  1  0.98983000  0.66141000  0.97747000  1.0
  H  H39  1  0.01018000  0.33859000  0.02253000  1.0
  H  H40  1  0.12356000  0.74879000  0.17468000  1.0
  H  H41  1  0.87645000  0.25122000  0.82532000  1.0
  H  H42  1  0.42914000  0.54799000  0.05555000  1.0
  H  H43  1  0.57086000  0.45201000  0.94445000  1.0
  H  H44  1  0.29616000  0.45950000  0.85689000  1.0
  H  H45  1  0.70384000  0.54050000  0.14311000  1.0
  C  C46  1  0.52899000  0.31724000  0.40234000  1.0
  C  C47  1  0.47101000  0.68276000  0.59766000  1.0
  C  C48  1  0.57827000  0.41239000  0.37928000  1.0
  C  C49  1  0.42173000  0.58761000  0.62072000  1.0
  C  C50  1  0.69901000  0.50978000  0.45425000  1.0
  C  C51  1  0.30099000  0.49022000  0.54575000  1.0
  C  C52  1  0.76335000  0.51032000  0.54954000  1.0
  C  C53  1  0.23665000  0.48968000  0.45046000  1.0
  C  C54  1  0.70524000  0.41330000  0.56686000  1.0
  C  C55  1  0.29475000  0.58670000  0.43314000  1.0
  C  C56  1  0.50490000  0.41143000  0.28032000  1.0
  C  C57  1  0.49510000  0.58857000  0.71967000  1.0
  C  C58  1  0.33283000  0.33086000  0.11486000  1.0
  C  C59  1  0.66717000  0.66914000  0.88514000  1.0
  C  C60  1  0.36256000  0.24312000  0.00449000  1.0
  C  C61  1  0.63744000  0.75688000  0.99551000  1.0
  C  C62  1  0.45793000  0.17453000  0.00020000  1.0
  C  C63  1  0.54207000  0.82547000  0.99980000  1.0
  C  C64  1  0.48865000  0.09913000  0.89793000  1.0
  C  C65  1  0.51135000  0.90087000  0.10208000  1.0
  C  C66  1  0.42529000  0.09120000  0.79776000  1.0
  C  C67  1  0.57471000  0.90880000  0.20224000  1.0
  C  C68  1  0.32925000  0.15947000  0.80207000  1.0
  C  C69  1  0.67075000  0.84053000  0.19794000  1.0
  C  C70  1  0.29754000  0.23391000  0.90404000  1.0
  C  C71  1  0.70246000  0.76609000  0.09596000  1.0
  C  C72  1  0.46263000  0.01197000  0.68960000  1.0
  C  C73  1  0.53737000  0.98803000  0.31040000  1.0
  C  C74  1  0.16603000  0.03875000  0.39429000  1.0
  C  C75  1  0.83397000  0.96125000  0.60571000  1.0
  C  C76  1  0.01704000  0.02537000  0.37491000  1.0
  C  C77  1  0.98296000  0.97463000  0.62509000  1.0
  C  C78  1  0.96091000  0.10987000  0.45460000  1.0
  C  C79  1  0.03909000  0.89013000  0.54540000  1.0
  C  C80  1  0.05783000  0.20854000  0.55101000  1.0
  C  C81  1  0.94217000  0.79146000  0.44898000  1.0
  C  C82  1  0.20589000  0.21420000  0.56503000  1.0
  C  C83  1  0.79411000  0.78580000  0.43497000  1.0
  C  C84  1  0.00878000  0.30471000  0.63645000  1.0
  C  C85  1  0.99122000  0.69529000  0.36355000  1.0
  C  C86  1  0.04794000  0.50129000  0.78565000  1.0
  C  C87  1  0.95207000  0.49871000  0.21435000  1.0
  C  C88  1  0.13398000  0.55417000  0.90414000  1.0
  C  C89  1  0.86603000  0.44583000  0.09586000  1.0
  C  C90  1  0.08665000  0.63643000  0.99433000  1.0
  C  C91  1  0.91336000  0.36357000  0.00567000  1.0
  C  C92  1  0.16031000  0.68487000  0.10460000  1.0
  C  C93  1  0.83970000  0.31514000  0.89540000  1.0
  C  C94  1  0.28346000  0.65185000  0.12747000  1.0
  C  C95  1  0.71654000  0.34815000  0.87253000  1.0
  C  C96  1  0.33169000  0.57108000  0.03728000  1.0
  C  C97  1  0.66831000  0.42892000  0.96272000  1.0
  C  C98  1  0.25782000  0.52244000  0.92662000  1.0
  C  C99  1  0.74219000  0.47756000  0.07338000  1.0
  C  C100  1  0.36389000  0.70343000  0.24591000  1.0
  C  C101  1  0.63612000  0.29657000  0.75409000  1.0
  N  N102  1  0.59131000  0.31789000  0.49388000  1.0
  N  N103  1  0.40869000  0.68211000  0.50612000  1.0
  N  N104  1  0.39616000  0.32229000  0.20962000  1.0
  N  N105  1  0.60384000  0.67770000  0.79038000  1.0
  N  N106  1  0.25813000  0.13137000  0.48893000  1.0
  N  N107  1  0.74187000  0.86863000  0.51107000  1.0
  N  N108  1  0.10022000  0.40902000  0.70248000  1.0
  N  N109  1  0.89978000  0.59098000  0.29752000  1.0
  O  O110  1  0.39841000  0.00151000  0.59648000  1.0
  O  O111  1  0.60159000  0.99849000  0.40352000  1.0
  O  O112  1  0.55303000  0.95515000  0.69031000  1.0
  O  O113  1  0.44696000  0.04485000  0.30969000  1.0
  O  O114  1  0.47179000  0.67013000  0.26585000  1.0
  O  O115  1  0.52821000  0.32986000  0.73416000  1.0
  O  O116  1  0.31749000  0.78247000  0.32455000  1.0
  O  O117  1  0.68251000  0.21753000  0.67544000  1.0
