# generated using pymatgen
data_CoP2H9C3NO7
_symmetry_space_group_name_H-M   'P 1'
_cell_length_a   5.45976000
_cell_length_b   8.46228000
_cell_length_c   8.58041000
_cell_angle_alpha   87.91740000
_cell_angle_beta   83.90050000
_cell_angle_gamma   89.41720000
_symmetry_Int_Tables_number   1
_chemical_formula_structural   CoP2H9C3NO7
_chemical_formula_sum   'Co2 P4 H18 C6 N2 O14'
_cell_volume   393.91968826
_cell_formula_units_Z   2
loop_
 _symmetry_equiv_pos_site_id
 _symmetry_equiv_pos_as_xyz
  1  'x, y, z'
loop_
 _atom_site_type_symbol
 _atom_site_label
 _atom_site_symmetry_multiplicity
 _atom_site_fract_x
 _atom_site_fract_y
 _atom_site_fract_z
 _atom_site_occupancy
  Co  Co0  1  0.83848000  0.13373000  0.09584000  1.0
  Co  Co1  1  0.16153000  0.86627000  0.90416000  1.0
  P  P2  1  0.28972000  0.33627000  0.12538000  1.0
  P  P3  1  0.71029000  0.66373000  0.87462000  1.0
  P  P4  1  0.30445000  0.00106000  0.24926000  1.0
  P  P5  1  0.69556000  0.99894000  0.75074000  1.0
  H  H6  1  0.26240000  0.19501000  0.74260000  1.0
  H  H7  1  0.73760000  0.80500000  0.25740000  1.0
  H  H8  1  0.09832000  0.35775000  0.78959000  1.0
  H  H9  1  0.90167000  0.64225000  0.21041000  1.0
  H  H10  1  0.34864000  0.59127000  0.09964000  1.0
  H  H11  1  0.65137000  0.40873000  0.90036000  1.0
  H  H12  1  0.00650000  0.77501000  0.33057000  1.0
  H  H13  1  0.99350000  0.22498000  0.66943000  1.0
  H  H14  1  0.55902000  0.28508000  0.38212000  1.0
  H  H15  1  0.44098000  0.71493000  0.61788000  1.0
  H  H16  1  0.41615000  0.13572000  0.50162000  1.0
  H  H17  1  0.58385000  0.86428000  0.49838000  1.0
  H  H18  1  0.44048000  0.42464000  0.60042000  1.0
  H  H19  1  0.55950000  0.57537000  0.39958000  1.0
  H  H20  1  0.16261000  0.45597000  0.51291000  1.0
  H  H21  1  0.83737000  0.54402000  0.48709000  1.0
  H  H22  1  0.90218000  0.15218000  0.43451000  1.0
  H  H23  1  0.09782000  0.84782000  0.56549000  1.0
  C  C24  1  0.22564000  0.20774000  0.30284000  1.0
  C  C25  1  0.77436000  0.79226000  0.69716000  1.0
  C  C26  1  0.37830000  0.24604000  0.43706000  1.0
  C  C27  1  0.62170000  0.75396000  0.56294000  1.0
  C  C28  1  0.28370000  0.36562000  0.55870000  1.0
  C  C29  1  0.71629000  0.63439000  0.44130000  1.0
  N  N30  1  0.15139000  0.28418000  0.69864000  1.0
  N  N31  1  0.84860000  0.71582000  0.30136000  1.0
  O  O32  1  0.07637000  0.31380000  0.02692000  1.0
  O  O33  1  0.92364000  0.68620000  0.97308000  1.0
  O  O34  1  0.28797000  0.51148000  0.18838000  1.0
  O  O35  1  0.71204000  0.48852000  0.81162000  1.0
  O  O36  1  0.54630000  0.29877000  0.04383000  1.0
  O  O37  1  0.45370000  0.70122000  0.95617000  1.0
  O  O38  1  0.15044000  0.97591000  0.11028000  1.0
  O  O39  1  0.84957000  0.02409000  0.88972000  1.0
  O  O40  1  0.58530000  0.98741000  0.21224000  1.0
  O  O41  1  0.41471000  0.01259000  0.78776000  1.0
  O  O42  1  0.21028000  0.89366000  0.38910000  1.0
  O  O43  1  0.78973000  0.10633000  0.61090000  1.0
  O  O44  1  0.96028000  0.21519000  0.33535000  1.0
  O  O45  1  0.03972000  0.78481000  0.66465000  1.0
