# generated using pymatgen
data_Zn4H16C28BrNO13
_symmetry_space_group_name_H-M   'P 1'
_cell_length_a   13.04060000
_cell_length_b   13.30450000
_cell_length_c   15.75700000
_cell_angle_alpha   70.63300000
_cell_angle_beta   75.02660000
_cell_angle_gamma   88.73910000
_symmetry_Int_Tables_number   1
_chemical_formula_structural   Zn4H16C28BrNO13
_chemical_formula_sum   'Zn4 H16 C28 Br1 N1 O13'
_cell_volume   2485.46173325
_cell_formula_units_Z   1
loop_
 _symmetry_equiv_pos_site_id
 _symmetry_equiv_pos_as_xyz
  1  'x, y, z'
loop_
 _atom_site_type_symbol
 _atom_site_label
 _atom_site_symmetry_multiplicity
 _atom_site_fract_x
 _atom_site_fract_y
 _atom_site_fract_z
 _atom_site_occupancy
  Zn  Zn0  1  0.41334000  0.44113000  0.44359000  1.0
  Zn  Zn1  1  0.57300000  0.39354000  0.57237000  1.0
  Zn  Zn2  1  0.40747000  0.55848000  0.59508000  1.0
  Zn  Zn3  1  0.59104000  0.61876000  0.39588000  1.0
  H  H4  1  0.48534000  0.22760000  0.87004000  1.0
  H  H5  1  0.58169000  0.74952000  0.11820000  1.0
  H  H6  1  0.54910000  0.66610000  0.88497000  1.0
  H  H7  1  0.58644000  0.80223000  0.94918000  1.0
  H  H8  1  0.50877000  0.36920000  0.23938000  1.0
  H  H9  1  0.88469000  0.46201000  0.59658000  1.0
  H  H10  1  0.47781000  0.19164000  0.25349000  1.0
  H  H11  1  0.45763000  0.15398000  0.16677000  1.0
  H  H12  1  0.09931000  0.52104000  0.44016000  1.0
  H  H13  1  0.93766000  0.57391000  0.38291000  1.0
  H  H14  1  0.05500000  0.46979000  0.65289000  1.0
  H  H15  1  0.48295000  0.90416000  0.56611000  1.0
  H  H16  1  0.54406000  0.06871000  0.56769000  1.0
  H  H17  1  0.42514000  0.93391000  0.38173000  1.0
  H  H18  1  0.49170000  0.17778000  0.03363000  1.0
  H  H19  1  0.49754000  0.55887000  0.84149000  1.0
  C  C20  1  0.77338000  0.52754000  0.46855000  1.0
  C  C21  1  0.49816000  0.47622000  0.88527000  1.0
  C  C22  1  0.48949000  0.28869000  0.90118000  1.0
  C  C23  1  0.21624000  0.49086000  0.55853000  1.0
  C  C24  1  0.54163000  0.58419000  0.14774000  1.0
  C  C25  1  0.09881000  0.48439000  0.58035000  1.0
  C  C26  1  0.04934000  0.50177000  0.51169000  1.0
  C  C27  1  0.88997000  0.53403000  0.45434000  1.0
  C  C28  1  0.93583000  0.49702000  0.52558000  1.0
  C  C29  1  0.44620000  0.89378000  0.44690000  1.0
  C  C30  1  0.45594000  0.94648000  0.50423000  1.0
  C  C31  1  0.56818000  0.71911000  0.99437000  1.0
  C  C32  1  0.49083000  0.11365000  0.52781000  1.0
  C  C33  1  0.44007000  0.05877000  0.49020000  1.0
  C  C34  1  0.49063000  0.22736000  0.51952000  1.0
  C  C35  1  0.47094000  0.77995000  0.46618000  1.0
  C  C36  1  0.48313000  0.42639000  0.74931000  1.0
  C  C37  1  0.53057000  0.56231000  0.24903000  1.0
  C  C38  1  0.49292000  0.26198000  0.99270000  1.0
  C  C39  1  0.48952000  0.39712000  0.84738000  1.0
  C  C40  1  0.56588000  0.68980000  0.08886000  1.0
  C  C41  1  0.54690000  0.64204000  0.95860000  1.0
  C  C42  1  0.52556000  0.53357000  0.01468000  1.0
  C  C43  1  0.52443000  0.50248000  0.11119000  1.0
  C  C44  1  0.50806000  0.45131000  0.97691000  1.0
  C  C45  1  0.50084000  0.34120000  0.03282000  1.0
  C  C46  1  0.50182000  0.31306000  0.12929000  1.0
  C  C47  1  0.51103000  0.39220000  0.16589000  1.0
  Br  Br48  1  0.34510000  0.12132000  0.41661000  1.0
  N  N49  1  0.49689000  0.20650000  0.18349000  1.0
  O  O50  1  0.49805000  0.50547000  0.50053000  1.0
  O  O51  1  0.51259000  0.35816000  0.70812000  1.0
  O  O52  1  0.58970000  0.61994000  0.27074000  1.0
  O  O53  1  0.44907000  0.51729000  0.71277000  1.0
  O  O54  1  0.46009000  0.48943000  0.30748000  1.0
  O  O55  1  0.42216000  0.28471000  0.48482000  1.0
  O  O56  1  0.53279000  0.75771000  0.39851000  1.0
  O  O57  1  0.71884000  0.45490000  0.54165000  1.0
  O  O58  1  0.25771000  0.50934000  0.61781000  1.0
  O  O59  1  0.73812000  0.59565000  0.40547000  1.0
  O  O60  1  0.26662000  0.47817000  0.48196000  1.0
  O  O61  1  0.56260000  0.25818000  0.54955000  1.0
  O  O62  1  0.42803000  0.71599000  0.54814000  1.0
