# generated using pymatgen
data_LiZnH3(C3O2)3
_symmetry_space_group_name_H-M   'P 1'
_cell_length_a   11.28740000
_cell_length_b   16.45370000
_cell_length_c   16.45370000
_cell_angle_alpha   90.00000000
_cell_angle_beta   90.00000000
_cell_angle_gamma   90.00000000
_symmetry_Int_Tables_number   1
_chemical_formula_structural   LiZnH3(C3O2)3
_chemical_formula_sum   'Li8 Zn8 H24 C72 O48'
_cell_volume   3055.77282823
_cell_formula_units_Z   8
loop_
 _symmetry_equiv_pos_site_id
 _symmetry_equiv_pos_as_xyz
  1  'x, y, z'
loop_
 _atom_site_type_symbol
 _atom_site_label
 _atom_site_symmetry_multiplicity
 _atom_site_fract_x
 _atom_site_fract_y
 _atom_site_fract_z
 _atom_site_occupancy
  Li  Li0  1  0.37864000  0.09774000  0.32530000  1.0
  Li  Li1  1  0.87864000  0.90226000  0.67470000  1.0
  Li  Li2  1  0.12864000  0.17469000  0.59774000  1.0
  Li  Li3  1  0.62864000  0.82531000  0.40226000  1.0
  Li  Li4  1  0.37136000  0.40226000  0.82531000  1.0
  Li  Li5  1  0.87136000  0.59774000  0.17469000  1.0
  Li  Li6  1  0.62136000  0.32530000  0.09774000  1.0
  Li  Li7  1  0.12136000  0.67470000  0.90226000  1.0
  Zn  Zn8  1  0.15807000  0.17451000  0.41680000  1.0
  Zn  Zn9  1  0.65807000  0.82549000  0.58320000  1.0
  Zn  Zn10  1  0.90807000  0.08320000  0.67451000  1.0
  Zn  Zn11  1  0.40807000  0.91680000  0.32549000  1.0
  Zn  Zn12  1  0.59193000  0.32549000  0.91680000  1.0
  Zn  Zn13  1  0.09193000  0.67451000  0.08320000  1.0
  Zn  Zn14  1  0.84193000  0.41680000  0.17451000  1.0
  Zn  Zn15  1  0.34193000  0.58320000  0.82549000  1.0
  H  H16  1  0.91395000  0.25431000  0.37121000  1.0
  H  H17  1  0.41395000  0.74569000  0.62879000  1.0
  H  H18  1  0.66395000  0.12880000  0.75430000  1.0
  H  H19  1  0.16395000  0.87120000  0.24570000  1.0
  H  H20  1  0.83605000  0.24570000  0.87120000  1.0
  H  H21  1  0.33605000  0.75430000  0.12880000  1.0
  H  H22  1  0.08605000  0.37121000  0.25431000  1.0
  H  H23  1  0.58605000  0.62879000  0.74569000  1.0
  H  H24  1  0.62830000  0.13899000  0.24252000  1.0
  H  H25  1  0.12830000  0.86101000  0.75748000  1.0
  H  H26  1  0.37829000  0.25748000  0.63898000  1.0
  H  H27  1  0.87829000  0.74252000  0.36102000  1.0
  H  H28  1  0.12171000  0.36102000  0.74252000  1.0
  H  H29  1  0.62171000  0.63898000  0.25748000  1.0
  H  H30  1  0.37170000  0.24252000  0.13899000  1.0
  H  H31  1  0.87170000  0.75748000  0.86101000  1.0
  H  H32  1  0.77028000  0.02748000  0.45845000  1.0
  H  H33  1  0.27028000  0.97252000  0.54155000  1.0
  H  H34  1  0.52028000  0.04155000  0.52748000  1.0
  H  H35  1  0.02028000  0.95845000  0.47252000  1.0
  H  H36  1  0.97972000  0.47252000  0.95845000  1.0
  H  H37  1  0.47972000  0.52748000  0.04155000  1.0
  H  H38  1  0.22972000  0.45845000  0.02748000  1.0
  H  H39  1  0.72972000  0.54155000  0.97252000  1.0
  C  C40  1  0.92199000  0.14447000  0.49896000  1.0
  C  C41  1  0.42199000  0.85553000  0.50104000  1.0
  C  C42  1  0.67199000  0.00105000  0.64447000  1.0
  C  C43  1  0.17199000  0.99895000  0.35553000  1.0
  C  C44  1  0.82801000  0.35553000  0.99895000  1.0
  C  C45  1  0.32801000  0.64447000  0.00105000  1.0
  C  C46  1  0.07801000  0.49896000  0.14447000  1.0
  C  C47  1  0.57801000  0.50104000  0.85553000  1.0
  C  C48  1  0.76779000  0.27089000  0.24031000  1.0
  C  C49  1  0.26778000  0.72911000  0.75969000  1.0
  C  C50  1  0.51778000  0.25970000  0.77088000  1.0
  C  C51  1  0.01778000  0.74030000  0.22912000  1.0
  C  C52  1  0.98222000  0.22912000  0.74030000  1.0
  C  C53  1  0.48222000  0.77088000  0.25970000  1.0
  C  C54  1  0.23221000  0.24031000  0.27089000  1.0
  C  C55  1  0.73221000  0.75969000  0.72911000  1.0
  C  C56  1  0.61024000  0.00390000  0.34337000  1.0
  C  C57  1  0.11024000  0.99610000  0.65663000  1.0
  C  C58  1  0.36024000  0.15662000  0.50390000  1.0
  C  C59  1  0.86024000  0.84338000  0.49610000  1.0
  C  C60  1  0.13976000  0.49610000  0.84338000  1.0
  C  C61  1  0.63976000  0.50390000  0.15662000  1.0
  C  C62  1  0.38976000  0.34337000  0.00390000  1.0
  C  C63  1  0.88976000  0.65663000  0.99610000  1.0
  C  C64  1  0.84956000  0.14145000  0.42333000  1.0
  C  C65  1  0.34956000  0.85855000  0.57667000  1.0
  C  C66  1  0.59956000  0.07667000  0.64145000  1.0
  C  C67  1  0.09956000  0.92333000  0.35855000  1.0
  C  C68  1  0.90044000  0.35855000  0.92333000  1.0
  C  C69  1  0.40044000  0.64145000  0.07667000  1.0
  C  C70  1  0.15044000  0.42333000  0.14145000  1.0
  C  C71  1  0.65044000  0.57667000  0.85855000  1.0
  C  C72  1  0.85235000  0.20366000  0.36543000  1.0
  C  C73  1  0.35235000  0.79634000  0.63457000  1.0
  C  C74  1  0.60234000  0.13457000  0.70366000  1.0
  C  C75  1  0.10234000  0.86543000  0.29634000  1.0
  C  C76  1  0.89766000  0.29634000  0.86543000  1.0
  C  C77  1  0.39766000  0.70366000  0.13457000  1.0
  C  C78  1  0.14765000  0.36543000  0.20366000  1.0
  C  C79  1  0.64765000  0.63457000  0.79634000  1.0
  C  C80  1  0.77190000  0.20255000  0.30051000  1.0
  C  C81  1  0.27190000  0.79745000  0.69949000  1.0
  C  C82  1  0.52189000  0.19949000  0.70255000  1.0
  C  C83  1  0.02189000  0.80051000  0.29745000  1.0
  C  C84  1  0.97810000  0.29745000  0.80051000  1.0
  C  C85  1  0.47811000  0.70255000  0.19949000  1.0
  C  C86  1  0.22810000  0.30051000  0.20255000  1.0
  C  C87  1  0.72810000  0.69949000  0.79745000  1.0
  C  C88  1  0.69125000  0.13835000  0.29271000  1.0
  C  C89  1  0.19124000  0.86164000  0.70729000  1.0
  C  C90  1  0.44124000  0.20729000  0.63835000  1.0
  C  C91  1  0.94124000  0.79271000  0.36165000  1.0
  C  C92  1  0.05876000  0.36165000  0.79271000  1.0
  C  C93  1  0.55876000  0.63835000  0.20729000  1.0
  C  C94  1  0.30875000  0.29271000  0.13835000  1.0
  C  C95  1  0.80875000  0.70729000  0.86164000  1.0
  C  C96  1  0.69292000  0.07424000  0.34851000  1.0
  C  C97  1  0.19292000  0.92576000  0.65149000  1.0
  C  C98  1  0.44292000  0.15149000  0.57423000  1.0
  C  C99  1  0.94292000  0.84851000  0.42577000  1.0
  C  C100  1  0.05708000  0.42577000  0.84851000  1.0
  C  C101  1  0.55708000  0.57423000  0.15149000  1.0
  C  C102  1  0.30708000  0.34851000  0.07424000  1.0
  C  C103  1  0.80708000  0.65149000  0.92576000  1.0
  C  C104  1  0.77142000  0.07634000  0.41391000  1.0
  C  C105  1  0.27142000  0.92366000  0.58609000  1.0
  C  C106  1  0.52141000  0.08609000  0.57633000  1.0
  C  C107  1  0.02142000  0.91392000  0.42367000  1.0
  C  C108  1  0.97859000  0.42367000  0.91392000  1.0
  C  C109  1  0.47858000  0.57633000  0.08608000  1.0
  C  C110  1  0.22858000  0.41391000  0.07634000  1.0
  C  C111  1  0.72858000  0.58608000  0.92366000  1.0
  O  O112  1  0.02174000  0.18139000  0.50028000  1.0
  O  O113  1  0.52174000  0.81861000  0.49972000  1.0
  O  O114  1  0.77174000  0.99972000  0.68139000  1.0
  O  O115  1  0.27174000  0.00028000  0.31861000  1.0
  O  O116  1  0.72826000  0.31861000  0.00028000  1.0
  O  O117  1  0.22826000  0.68139000  0.99972000  1.0
  O  O118  1  0.97826000  0.50028000  0.18139000  1.0
  O  O119  1  0.47826000  0.49972000  0.81861000  1.0
  O  O120  1  0.87554000  0.10959000  0.56013000  1.0
  O  O121  1  0.37554000  0.89041000  0.43987000  1.0
  O  O122  1  0.62554000  0.93987000  0.60959000  1.0
  O  O123  1  0.12554000  0.06013000  0.39041000  1.0
  O  O124  1  0.87447000  0.39041000  0.06013000  1.0
  O  O125  1  0.37446000  0.60959000  0.93987000  1.0
  O  O126  1  0.12446000  0.56013000  0.10959000  1.0
  O  O127  1  0.62446000  0.43987000  0.89041000  1.0
  O  O128  1  0.84540000  0.32810000  0.25107000  1.0
  O  O129  1  0.34540000  0.67190000  0.74893000  1.0
  O  O130  1  0.59540000  0.24893000  0.82810000  1.0
  O  O131  1  0.09540000  0.75106000  0.17190000  1.0
  O  O132  1  0.90460000  0.17190000  0.75106000  1.0
  O  O133  1  0.40460000  0.82810000  0.24893000  1.0
  O  O134  1  0.15459000  0.25107000  0.32810000  1.0
  O  O135  1  0.65459000  0.74893000  0.67190000  1.0
  O  O136  1  0.69164000  0.26969000  0.18483000  1.0
  O  O137  1  0.19164000  0.73031000  0.81517000  1.0
  O  O138  1  0.44163000  0.31517000  0.76969000  1.0
  O  O139  1  0.94163000  0.68483000  0.23031000  1.0
  O  O140  1  0.05837000  0.23031000  0.68483000  1.0
  O  O141  1  0.55837000  0.76969000  0.31517000  1.0
  O  O142  1  0.30836000  0.18483000  0.26969000  1.0
  O  O143  1  0.80836000  0.81517000  0.73031000  1.0
  O  O144  1  0.50983000  0.01508000  0.30613000  1.0
  O  O145  1  0.00983000  0.98491000  0.69387000  1.0
  O  O146  1  0.25982000  0.19387000  0.51509000  1.0
  O  O147  1  0.75982000  0.80613000  0.48491000  1.0
  O  O148  1  0.24018000  0.48491000  0.80613000  1.0
  O  O149  1  0.74018000  0.51509000  0.19387000  1.0
  O  O150  1  0.49017000  0.30613000  0.01509000  1.0
  O  O151  1  0.99017000  0.69387000  0.98491000  1.0
  O  O152  1  0.63762000  0.93792000  0.37643000  1.0
  O  O153  1  0.13762000  0.06208000  0.62357000  1.0
  O  O154  1  0.38762000  0.12357000  0.43793000  1.0
  O  O155  1  0.88762000  0.87643000  0.56207000  1.0
  O  O156  1  0.11238000  0.56207000  0.87643000  1.0
  O  O157  1  0.61238000  0.43793000  0.12357000  1.0
  O  O158  1  0.36238000  0.37643000  0.93792000  1.0
  O  O159  1  0.86238000  0.62357000  0.06208000  1.0
