# generated using pymatgen
data_ZnH5C9N5O4
_symmetry_space_group_name_H-M   'P 1'
_cell_length_a   14.62730000
_cell_length_b   14.62730000
_cell_length_c   18.29920000
_cell_angle_alpha   90.00010000
_cell_angle_beta   89.99990000
_cell_angle_gamma   89.92710000
_symmetry_Int_Tables_number   1
_chemical_formula_structural   ZnH5C9N5O4
_chemical_formula_sum   'Zn8 H40 C72 N40 O32'
_cell_volume   3915.25533134
_cell_formula_units_Z   8
loop_
 _symmetry_equiv_pos_site_id
 _symmetry_equiv_pos_as_xyz
  1  'x, y, z'
loop_
 _atom_site_type_symbol
 _atom_site_label
 _atom_site_symmetry_multiplicity
 _atom_site_fract_x
 _atom_site_fract_y
 _atom_site_fract_z
 _atom_site_occupancy
  Zn  Zn0  1  0.24702000  0.18048000  0.47009000  1.0
  Zn  Zn1  1  0.81952000  0.75298000  0.52991000  1.0
  Zn  Zn2  1  0.74702000  0.68048000  0.02991000  1.0
  Zn  Zn3  1  0.31952000  0.25298000  0.97009000  1.0
  Zn  Zn4  1  0.74143000  0.25857000  0.00000000  1.0
  Zn  Zn5  1  0.24143000  0.75857000  0.50000000  1.0
  Zn  Zn6  1  0.82014000  0.17986000  0.50000000  1.0
  Zn  Zn7  1  0.32014000  0.67986000  0.00000000  1.0
  H  H8  1  0.24996000  0.12112000  0.30932000  1.0
  H  H9  1  0.87888000  0.75004000  0.69068000  1.0
  H  H10  1  0.74996000  0.62112000  0.19068000  1.0
  H  H11  1  0.37888000  0.25004000  0.80932000  1.0
  H  H12  1  0.87948000  0.23015000  0.66309000  1.0
  H  H13  1  0.76985000  0.12053000  0.33691000  1.0
  H  H14  1  0.37948000  0.73015000  0.83691000  1.0
  H  H15  1  0.26985000  0.62052000  0.16309000  1.0
  H  H16  1  0.01529000  0.17014000  0.44071000  1.0
  H  H17  1  0.82986000  0.98471000  0.55929000  1.0
  H  H18  1  0.51529000  0.67014000  0.05929000  1.0
  H  H19  1  0.32986000  0.48471000  0.94071000  1.0
  H  H20  1  0.24057000  0.98624000  0.53743000  1.0
  H  H21  1  0.01376000  0.75943000  0.46257000  1.0
  H  H22  1  0.74057000  0.48624000  0.96257000  1.0
  H  H23  1  0.51376000  0.25943000  0.03743000  1.0
  H  H24  1  0.84840000  0.25749000  0.77923000  1.0
  H  H25  1  0.74251000  0.15159000  0.22077000  1.0
  H  H26  1  0.34841000  0.75749000  0.72077000  1.0
  H  H27  1  0.24251000  0.65159000  0.27923000  1.0
  H  H28  1  0.06175000  0.29275000  0.93822000  1.0
  H  H29  1  0.70725000  0.93824000  0.06178000  1.0
  H  H30  1  0.56176000  0.79275000  0.56178000  1.0
  H  H31  1  0.20725000  0.43824000  0.43822000  1.0
  H  H32  1  0.13266000  0.23558000  0.71435000  1.0
  H  H33  1  0.76442000  0.86734000  0.28565000  1.0
  H  H34  1  0.63266000  0.73558000  0.78565000  1.0
  H  H35  1  0.26442000  0.36734000  0.21435000  1.0
  H  H36  1  0.24996000  0.86777000  0.25774000  1.0
  H  H37  1  0.13223000  0.75004000  0.74226000  1.0
  H  H38  1  0.74996000  0.36778000  0.24226000  1.0
  H  H39  1  0.63223000  0.25004000  0.75774000  1.0
  H  H40  1  0.27805000  0.15185000  0.19445000  1.0
  H  H41  1  0.84815000  0.72195000  0.80555000  1.0
  H  H42  1  0.77805000  0.65185000  0.30555000  1.0
  H  H43  1  0.34815000  0.22195000  0.69445000  1.0
  H  H44  1  0.31364000  0.93913000  0.03486000  1.0
  H  H45  1  0.06087000  0.68637000  0.96514000  1.0
  H  H46  1  0.81363000  0.43913000  0.46514000  1.0
  H  H47  1  0.56087000  0.18636000  0.53486000  1.0
  C  C48  1  0.31056000  0.12361000  0.05264000  1.0
  C  C49  1  0.87640000  0.68944000  0.94736000  1.0
  C  C50  1  0.81056000  0.62361000  0.44736000  1.0
  C  C51  1  0.37639000  0.18944000  0.55264000  1.0
  C  C52  1  0.87699000  0.28233000  0.92244000  1.0
  C  C53  1  0.71767000  0.12301000  0.07756000  1.0
  C  C54  1  0.37699000  0.78233000  0.57756000  1.0
  C  C55  1  0.21767000  0.62301000  0.42243000  1.0
  C  C56  1  0.94810000  0.27693000  0.86421000  1.0
  C  C57  1  0.72307000  0.05190000  0.13579000  1.0
  C  C58  1  0.44810000  0.77693000  0.63579000  1.0
  C  C59  1  0.22307000  0.55190000  0.36421000  1.0
  C  C60  1  0.99541000  0.20212000  0.60664000  1.0
  C  C61  1  0.79788000  0.00459000  0.39336000  1.0
  C  C62  1  0.49541000  0.70212000  0.89336000  1.0
  C  C63  1  0.29789000  0.50459000  0.10664000  1.0
  C  C64  1  0.98673000  0.24408000  0.73781000  1.0
  C  C65  1  0.75592000  0.01327000  0.26219000  1.0
  C  C66  1  0.48673000  0.74408000  0.76220000  1.0
  C  C67  1  0.25592000  0.51327000  0.23780000  1.0
  C  C68  1  0.23965000  0.00431000  0.36882000  1.0
  C  C69  1  0.99569000  0.76035000  0.63118000  1.0
  C  C70  1  0.73965000  0.50431000  0.13118000  1.0
  C  C71  1  0.49569000  0.26035000  0.86882000  1.0
  C  C72  1  0.92107000  0.26012000  0.79232000  1.0
  C  C73  1  0.73988000  0.07893000  0.20768000  1.0
  C  C74  1  0.42107000  0.76012000  0.70768000  1.0
  C  C75  1  0.23988000  0.57893000  0.29232000  1.0
  C  C76  1  0.04086000  0.28115000  0.88193000  1.0
  C  C77  1  0.71886000  0.95913000  0.11806000  1.0
  C  C78  1  0.54087000  0.78115000  0.61807000  1.0
  C  C79  1  0.21885000  0.45913000  0.38193000  1.0
  C  C80  1  0.07999000  0.24820000  0.75509000  1.0
  C  C81  1  0.75181000  0.92001000  0.24491000  1.0
  C  C82  1  0.58000000  0.74819000  0.74491000  1.0
  C  C83  1  0.25181000  0.42001000  0.25508000  1.0
  C  C84  1  0.10623000  0.26806000  0.82719000  1.0
  C  C85  1  0.73194000  0.89377000  0.17281000  1.0
  C  C86  1  0.60623000  0.76806000  0.67281000  1.0
  C  C87  1  0.23194000  0.39377000  0.32719000  1.0
  C  C88  1  0.26328000  0.92038000  0.21711000  1.0
  C  C89  1  0.07962000  0.73672000  0.78289000  1.0
  C  C90  1  0.76328000  0.42038000  0.28289000  1.0
  C  C91  1  0.57962000  0.23672000  0.71711000  1.0
  C  C92  1  0.26167000  0.01362000  0.23504000  1.0
  C  C93  1  0.98638000  0.73833000  0.76496000  1.0
  C  C94  1  0.76166000  0.51362000  0.26496000  1.0
  C  C95  1  0.48638000  0.23833000  0.73504000  1.0
  C  C96  1  0.27854000  0.07932000  0.18084000  1.0
  C  C97  1  0.92068000  0.72146000  0.81917000  1.0
  C  C98  1  0.77854000  0.57932000  0.31916000  1.0
  C  C99  1  0.42068000  0.22146000  0.68083000  1.0
  C  C100  1  0.29930000  0.95972000  0.09080000  1.0
  C  C101  1  0.04028000  0.70070000  0.90920000  1.0
  C  C102  1  0.79930000  0.45972000  0.40920000  1.0
  C  C103  1  0.54028000  0.20070000  0.59080000  1.0
  C  C104  1  0.28397000  0.89436000  0.14514000  1.0
  C  C105  1  0.10564000  0.71603000  0.85486000  1.0
  C  C106  1  0.78397000  0.39436000  0.35486000  1.0
  C  C107  1  0.60564000  0.21603000  0.64514000  1.0
  C  C108  1  0.29609000  0.05232000  0.10910000  1.0
  C  C109  1  0.94768000  0.70391000  0.89090000  1.0
  C  C110  1  0.79609000  0.55232000  0.39090000  1.0
  C  C111  1  0.44768000  0.20390000  0.60910000  1.0
  C  C112  1  0.28992000  0.79526000  0.12529000  1.0
  C  C113  1  0.20474000  0.71008000  0.87471000  1.0
  C  C114  1  0.78992000  0.29526000  0.37471000  1.0
  C  C115  1  0.70474000  0.21008000  0.62529000  1.0
  C  C116  1  0.20545000  0.27005000  0.84718000  1.0
  C  C117  1  0.72996000  0.79455000  0.15282000  1.0
  C  C118  1  0.70545000  0.77004000  0.65282000  1.0
  C  C119  1  0.22996000  0.29455000  0.34718000  1.0
  N  N120  1  0.95210000  0.18563000  0.54183000  1.0
  N  N121  1  0.81437000  0.04790000  0.45817000  1.0
  N  N122  1  0.45210000  0.68563000  0.95816000  1.0
  N  N123  1  0.31438000  0.54790000  0.04183000  1.0
  N  N124  1  0.10256000  0.17606000  0.52864000  1.0
  N  N125  1  0.82394000  0.89744000  0.47137000  1.0
  N  N126  1  0.60256000  0.67606000  0.97136000  1.0
  N  N127  1  0.32394000  0.39744000  0.02864000  1.0
  N  N128  1  0.23931000  0.04763000  0.43479000  1.0
  N  N129  1  0.95237000  0.76069000  0.56522000  1.0
  N  N130  1  0.73931000  0.54763000  0.06522000  1.0
  N  N131  1  0.45237000  0.26069000  0.93479000  1.0
  N  N132  1  0.23132000  0.89804000  0.44947000  1.0
  N  N133  1  0.10197000  0.76868000  0.55053000  1.0
  N  N134  1  0.73132000  0.39804000  0.05053000  1.0
  N  N135  1  0.60196000  0.26868000  0.94947000  1.0
  N  N136  1  0.24564000  0.04934000  0.30545000  1.0
  N  N137  1  0.95066000  0.75436000  0.69455000  1.0
  N  N138  1  0.74564000  0.54934000  0.19455000  1.0
  N  N139  1  0.45066000  0.25436000  0.80545000  1.0
  N  N140  1  0.95090000  0.22386000  0.66791000  1.0
  N  N141  1  0.77614000  0.04910000  0.33209000  1.0
  N  N142  1  0.45090000  0.72386000  0.83209000  1.0
  N  N143  1  0.27615000  0.54910000  0.16791000  1.0
  N  N144  1  0.02250000  0.17049000  0.49610000  1.0
  N  N145  1  0.82951000  0.97750000  0.50390000  1.0
  N  N146  1  0.52250000  0.67050000  0.00390000  1.0
  N  N147  1  0.32951000  0.47750000  0.99610000  1.0
  N  N148  1  0.08865000  0.19406000  0.59785000  1.0
  N  N149  1  0.80594000  0.91135000  0.40215000  1.0
  N  N150  1  0.58865000  0.69406000  0.90215000  1.0
  N  N151  1  0.30594000  0.41135000  0.09785000  1.0
  N  N152  1  0.23419000  0.97804000  0.48221000  1.0
  N  N153  1  0.02196000  0.76582000  0.51779000  1.0
  N  N154  1  0.73419000  0.47804000  0.01779000  1.0
  N  N155  1  0.52196000  0.26581000  0.98221000  1.0
  N  N156  1  0.23348000  0.91145000  0.37862000  1.0
  N  N157  1  0.08855000  0.76653000  0.62138000  1.0
  N  N158  1  0.73347000  0.41145000  0.12138000  1.0
  N  N159  1  0.58855000  0.26652000  0.87862000  1.0
  O  O160  1  0.32892000  0.20606000  0.07398000  1.0
  O  O161  1  0.79394000  0.67108000  0.92602000  1.0
  O  O162  1  0.82892000  0.70606000  0.42603000  1.0
  O  O163  1  0.29394000  0.17108000  0.57397000  1.0
  O  O164  1  0.79293000  0.29575000  0.90230000  1.0
  O  O165  1  0.70425000  0.20707000  0.09770000  1.0
  O  O166  1  0.29293000  0.79575000  0.59770000  1.0
  O  O167  1  0.20425000  0.70707000  0.40230000  1.0
  O  O168  1  0.89684000  0.26921000  0.98892000  1.0
  O  O169  1  0.73079000  0.10316000  0.01107000  1.0
  O  O170  1  0.39684000  0.76921000  0.51108000  1.0
  O  O171  1  0.23079000  0.60316000  0.48892000  1.0
  O  O172  1  0.22308000  0.30266000  0.91222000  1.0
  O  O173  1  0.69735000  0.77692000  0.08778000  1.0
  O  O174  1  0.72308000  0.80266000  0.58778000  1.0
  O  O175  1  0.19734000  0.27692000  0.41222000  1.0
  O  O176  1  0.33509000  0.77984000  0.06486000  1.0
  O  O177  1  0.22015000  0.66492000  0.93514000  1.0
  O  O178  1  0.83509000  0.27984000  0.43514000  1.0
  O  O179  1  0.72015000  0.16491000  0.56486000  1.0
  O  O180  1  0.30320000  0.10598000  0.98480000  1.0
  O  O181  1  0.89403000  0.69680000  0.01520000  1.0
  O  O182  1  0.80320000  0.60597000  0.51520000  1.0
  O  O183  1  0.39402000  0.19680000  0.48480000  1.0
  O  O184  1  0.26499000  0.24123000  0.80370000  1.0
  O  O185  1  0.75876000  0.73500000  0.19630000  1.0
  O  O186  1  0.76499000  0.74123000  0.69630000  1.0
  O  O187  1  0.25877000  0.23500000  0.30370000  1.0
  O  O188  1  0.25474000  0.73476000  0.16448000  1.0
  O  O189  1  0.26523000  0.74526000  0.83552000  1.0
  O  O190  1  0.75474000  0.23477000  0.33552000  1.0
  O  O191  1  0.76523000  0.24525000  0.66448000  1.0
