# generated using pymatgen
data_ZnH13C9NO2
_symmetry_space_group_name_H-M   'P 1'
_cell_length_a   7.46700000
_cell_length_b   9.07901000
_cell_length_c   16.05510000
_cell_angle_alpha   90.00000000
_cell_angle_beta   90.00000000
_cell_angle_gamma   109.22200000
_symmetry_Int_Tables_number   1
_chemical_formula_structural   ZnH13C9NO2
_chemical_formula_sum   'Zn4 H52 C36 N4 O8'
_cell_volume   1027.74332704
_cell_formula_units_Z   4
loop_
 _symmetry_equiv_pos_site_id
 _symmetry_equiv_pos_as_xyz
  1  'x, y, z'
loop_
 _atom_site_type_symbol
 _atom_site_label
 _atom_site_symmetry_multiplicity
 _atom_site_fract_x
 _atom_site_fract_y
 _atom_site_fract_z
 _atom_site_occupancy
  Zn  Zn0  1  0.51336000  0.69487000  0.80061000  1.0
  Zn  Zn1  1  0.48664000  0.80514000  0.30061000  1.0
  Zn  Zn2  1  0.48664000  0.30514000  0.19939000  1.0
  Zn  Zn3  1  0.51336000  0.19487000  0.69939000  1.0
  H  H4  1  0.15469000  0.71446000  0.85310000  1.0
  H  H5  1  0.84531000  0.78554000  0.35310000  1.0
  H  H6  1  0.84532000  0.28554000  0.14690000  1.0
  H  H7  1  0.15468000  0.21446000  0.64690000  1.0
  H  H8  1  0.03796000  0.85905000  0.85625000  1.0
  H  H9  1  0.96204000  0.64094000  0.35625000  1.0
  H  H10  1  0.96204000  0.14095000  0.14375000  1.0
  H  H11  1  0.03796000  0.35906000  0.64376000  1.0
  H  H12  1  0.23697000  0.87763000  0.92092000  1.0
  H  H13  1  0.76303000  0.62237000  0.42092000  1.0
  H  H14  1  0.76303000  0.12237000  0.07908000  1.0
  H  H15  1  0.23696000  0.37763000  0.57908000  1.0
  H  H16  1  0.58154000  0.86580000  0.63374000  1.0
  H  H17  1  0.41847000  0.63420000  0.13374000  1.0
  H  H18  1  0.41846000  0.13419000  0.36626000  1.0
  H  H19  1  0.58153000  0.36580000  0.86626000  1.0
  H  H20  1  0.81543000  0.91791000  0.51647000  1.0
  H  H21  1  0.18459000  0.58209000  0.01647000  1.0
  H  H22  1  0.18457000  0.08208000  0.48353000  1.0
  H  H23  1  0.81540000  0.41791000  0.98353000  1.0
  H  H24  1  0.09311000  0.81879000  0.52833000  1.0
  H  H25  1  0.90691000  0.68121000  0.02833000  1.0
  H  H26  1  0.90689000  0.18120000  0.47167000  1.0
  H  H27  1  0.09309000  0.31880000  0.97167000  1.0
  H  H28  1  0.11581000  0.66407000  0.65675000  1.0
  H  H29  1  0.88419000  0.83593000  0.15674000  1.0
  H  H30  1  0.88419000  0.33592000  0.34326000  1.0
  H  H31  1  0.11582000  0.16408000  0.84326000  1.0
  H  H32  1  0.86054000  0.61203000  0.76290000  1.0
  H  H33  1  0.13946000  0.88797000  0.26289000  1.0
  H  H34  1  0.13946000  0.38797000  0.23711000  1.0
  H  H35  1  0.86055000  0.11203000  0.73711000  1.0
  H  H36  1  0.48034000  0.58891000  0.95044000  1.0
  H  H37  1  0.51966000  0.91109000  0.45044000  1.0
  H  H38  1  0.51967000  0.41109000  0.04956000  1.0
  H  H39  1  0.48034000  0.08890000  0.54956000  1.0
  H  H40  1  0.71473000  0.63676000  0.91562000  1.0
  H  H41  1  0.28527000  0.86324000  0.41561000  1.0
  H  H42  1  0.28528000  0.36324000  0.08438000  1.0
  H  H43  1  0.71473000  0.13676000  0.58439000  1.0
  H  H44  1  0.68519000  0.82229000  0.03128000  1.0
  H  H45  1  0.31481000  0.67771000  0.53128000  1.0
  H  H46  1  0.31482000  0.17771000  0.96872000  1.0
  H  H47  1  0.68519000  0.32229000  0.46872000  1.0
  H  H48  1  0.53086000  0.88333000  0.96727000  1.0
  H  H49  1  0.46914000  0.61668000  0.46727000  1.0
  H  H50  1  0.46915000  0.11668000  0.03274000  1.0
  H  H51  1  0.53086000  0.38332000  0.53273000  1.0
  H  H52  1  0.76890000  0.92366000  0.93721000  1.0
  H  H53  1  0.23110000  0.57634000  0.43721000  1.0
  H  H54  1  0.23110000  0.07634000  0.06279000  1.0
  H  H55  1  0.76890000  0.42365000  0.56279000  1.0
  C  C56  1  0.31019000  0.93353000  0.79401000  1.0
  C  C57  1  0.68981000  0.56647000  0.29401000  1.0
  C  C58  1  0.68981000  0.06647000  0.20598000  1.0
  C  C59  1  0.31018000  0.43353000  0.70599000  1.0
  C  C60  1  0.17472000  0.83917000  0.85930000  1.0
  C  C61  1  0.82528000  0.66083000  0.35930000  1.0
  C  C62  1  0.82528000  0.16083000  0.14070000  1.0
  C  C63  1  0.17472000  0.33917000  0.64070000  1.0
  C  C64  1  0.70080000  0.82177000  0.63489000  1.0
  C  C65  1  0.29921000  0.67824000  0.13489000  1.0
  C  C66  1  0.29920000  0.17823000  0.36511000  1.0
  C  C67  1  0.70079000  0.32176000  0.86511000  1.0
  C  C68  1  0.83346000  0.85209000  0.57067000  1.0
  C  C69  1  0.16656000  0.64791000  0.07068000  1.0
  C  C70  1  0.16654000  0.14790000  0.42932000  1.0
  C  C71  1  0.83345000  0.35209000  0.92933000  1.0
  C  C72  1  0.98601000  0.79624000  0.57726000  1.0
  C  C73  1  0.01400000  0.70376000  0.07726000  1.0
  C  C74  1  0.01399000  0.20375000  0.42274000  1.0
  C  C75  1  0.98600000  0.29624000  0.92274000  1.0
  C  C76  1  0.99915000  0.70960000  0.64733000  1.0
  C  C77  1  0.00086000  0.79040000  0.14733000  1.0
  C  C78  1  0.00085000  0.29040000  0.35267000  1.0
  C  C79  1  0.99915000  0.20960000  0.85267000  1.0
  C  C80  1  0.85843000  0.68163000  0.70780000  1.0
  C  C81  1  0.14157000  0.81837000  0.20779000  1.0
  C  C82  1  0.14157000  0.31836000  0.29221000  1.0
  C  C83  1  0.85843000  0.18163000  0.79220000  1.0
  C  C84  1  0.59281000  0.67992000  0.91725000  1.0
  C  C85  1  0.40719000  0.82009000  0.41725000  1.0
  C  C86  1  0.40719000  0.32009000  0.08275000  1.0
  C  C87  1  0.59281000  0.17991000  0.58275000  1.0
  C  C88  1  0.64716000  0.83408000  0.96572000  1.0
  C  C89  1  0.35284000  0.66592000  0.46572000  1.0
  C  C90  1  0.35285000  0.16592000  0.03428000  1.0
  C  C91  1  0.64715000  0.33408000  0.53428000  1.0
  N  N92  1  0.71312000  0.73795000  0.70249000  1.0
  N  N93  1  0.28689000  0.76205000  0.20249000  1.0
  N  N94  1  0.28688000  0.26204000  0.29751000  1.0
  N  N95  1  0.71311000  0.23795000  0.79751000  1.0
  O  O96  1  0.44778000  0.89190000  0.76891000  1.0
  O  O97  1  0.55222000  0.60810000  0.26891000  1.0
  O  O98  1  0.55222000  0.10810000  0.23109000  1.0
  O  O99  1  0.44778000  0.39190000  0.73109000  1.0
  O  O100  1  0.28562000  0.05848000  0.76775000  1.0
  O  O101  1  0.71438000  0.44152000  0.26775000  1.0
  O  O102  1  0.71438000  0.94152000  0.23225000  1.0
  O  O103  1  0.28562000  0.55848000  0.73226000  1.0
