# generated using pymatgen
data_ZnH17C21N2ClO8
_symmetry_space_group_name_H-M   'P 1'
_cell_length_a   9.47375000
_cell_length_b   9.96662000
_cell_length_c   12.79910000
_cell_angle_alpha   67.81400000
_cell_angle_beta   85.68010000
_cell_angle_gamma   69.50170000
_symmetry_Int_Tables_number   1
_chemical_formula_structural   ZnH17C21N2ClO8
_chemical_formula_sum   'Zn2 H34 C42 N4 Cl2 O16'
_cell_volume   1045.91993011
_cell_formula_units_Z   2
loop_
 _symmetry_equiv_pos_site_id
 _symmetry_equiv_pos_as_xyz
  1  'x, y, z'
loop_
 _atom_site_type_symbol
 _atom_site_label
 _atom_site_symmetry_multiplicity
 _atom_site_fract_x
 _atom_site_fract_y
 _atom_site_fract_z
 _atom_site_occupancy
  Zn  Zn0  1  0.76372000  0.00601000  0.13142000  1.0
  Zn  Zn1  1  0.23629000  0.99398000  0.86858000  1.0
  H  H2  1  0.20001000  0.12017000  0.57108000  1.0
  H  H3  1  0.79999000  0.87983000  0.42892000  1.0
  H  H4  1  0.58297000  0.76633000  0.91028000  1.0
  H  H5  1  0.41703000  0.23367000  0.08972000  1.0
  H  H6  1  0.22627000  0.78998000  0.47752000  1.0
  H  H7  1  0.77372000  0.21002000  0.52248000  1.0
  H  H8  1  0.36013000  0.75891000  0.64839000  1.0
  H  H9  1  0.63987000  0.24109000  0.35161000  1.0
  H  H10  1  0.50882000  0.26322000  0.75208000  1.0
  H  H11  1  0.49118000  0.73678000  0.24792000  1.0
  H  H12  1  0.37085000  0.29589000  0.57983000  1.0
  H  H13  1  0.62914000  0.70411000  0.42017000  1.0
  H  H14  1  0.43162000  0.68392000  0.83211000  1.0
  H  H15  1  0.56838000  0.31608000  0.16789000  1.0
  H  H16  1  0.59256000  0.66601000  0.74878000  1.0
  H  H17  1  0.40744000  0.33399000  0.25122000  1.0
  H  H18  1  0.87336000  0.39717000  0.10811000  1.0
  H  H19  1  0.12664000  0.60283000  0.89189000  1.0
  H  H20  1  0.02558000  0.41611000  0.25054000  1.0
  H  H21  1  0.97441000  0.58389000  0.74946000  1.0
  H  H22  1  0.98023000  0.67568000  0.25874000  1.0
  H  H23  1  0.01977000  0.32432000  0.74126000  1.0
  H  H24  1  0.63798000  0.88872000  0.00415000  1.0
  H  H25  1  0.36202000  0.11128000  0.99585000  1.0
  H  H26  1  0.39384000  0.08749000  0.45288000  1.0
  H  H27  1  0.60616000  0.91251000  0.54712000  1.0
  H  H28  1  0.94128000  0.12457000  0.38190000  1.0
  H  H29  1  0.05872000  0.87543000  0.61810000  1.0
  H  H30  1  0.29482000  0.99370000  0.16960000  1.0
  H  H31  1  0.70518000  0.00630000  0.83040000  1.0
  H  H32  1  0.70545000  0.24814000  0.95322000  1.0
  H  H33  1  0.29455000  0.75186000  0.04678000  1.0
  H  H34  1  0.80602000  0.10362000  0.92010000  1.0
  H  H35  1  0.19398000  0.89638000  0.07990000  1.0
  C  C36  1  0.29047000  0.54512000  0.51956000  1.0
  C  C37  1  0.70952000  0.45488000  0.48044000  1.0
  C  C38  1  0.28783000  0.67483000  0.53795000  1.0
  C  C39  1  0.71216000  0.32517000  0.46205000  1.0
  C  C40  1  0.36470000  0.65637000  0.63435000  1.0
  C  C41  1  0.63530000  0.34363000  0.36565000  1.0
  C  C42  1  0.44343000  0.50732000  0.71089000  1.0
  C  C43  1  0.55657000  0.49268000  0.28911000  1.0
  C  C44  1  0.44488000  0.37766000  0.69171000  1.0
  C  C45  1  0.55512000  0.62234000  0.30829000  1.0
  C  C46  1  0.36862000  0.39624000  0.59590000  1.0
  C  C47  1  0.63137000  0.60377000  0.40410000  1.0
  C  C48  1  0.54102000  0.60245000  0.82240000  1.0
  C  C49  1  0.45899000  0.39756000  0.17760000  1.0
  C  C50  1  0.64618000  0.54066000  0.92727000  1.0
  C  C51  1  0.35382000  0.45935000  0.07272000  1.0
  C  C52  1  0.74628000  0.64327000  0.04246000  1.0
  C  C53  1  0.25371000  0.35673000  0.95754000  1.0
  C  C54  1  0.85646000  0.50771000  0.11387000  1.0
  C  C55  1  0.14354000  0.49229000  0.88613000  1.0
  C  C56  1  0.94077000  0.51921000  0.19271000  1.0
  C  C57  1  0.05922000  0.48078000  0.80729000  1.0
  C  C58  1  0.91599000  0.66190000  0.19898000  1.0
  C  C59  1  0.08401000  0.33810000  0.80102000  1.0
  C  C60  1  0.72528000  0.78204000  0.05596000  1.0
  C  C61  1  0.27472000  0.21796000  0.94404000  1.0
  C  C62  1  0.52092000  0.01133000  0.27807000  1.0
  C  C63  1  0.47909000  0.98867000  0.72194000  1.0
  C  C64  1  0.35909000  0.04320000  0.30566000  1.0
  C  C65  1  0.64092000  0.95680000  0.69434000  1.0
  C  C66  1  0.31286000  0.08188000  0.40006000  1.0
  C  C67  1  0.68714000  0.91812000  0.59994000  1.0
  C  C68  1  0.16186000  0.11193000  0.42810000  1.0
  C  C69  1  0.83814000  0.88807000  0.57191000  1.0
  C  C70  1  0.05817000  0.10292000  0.36039000  1.0
  C  C71  1  0.94183000  0.89708000  0.63961000  1.0
  C  C72  1  0.10650000  0.05866000  0.26837000  1.0
  C  C73  1  0.89350000  0.94134000  0.73163000  1.0
  C  C74  1  0.25687000  0.03038000  0.23990000  1.0
  C  C75  1  0.74313000  0.96962000  0.76010000  1.0
  C  C76  1  0.99969000  0.03257000  0.20440000  1.0
  C  C77  1  0.00031000  0.96743000  0.79560000  1.0
  N  N78  1  0.65467000  0.65474000  0.95693000  1.0
  N  N79  1  0.34533000  0.34526000  0.04306000  1.0
  N  N80  1  0.80911000  0.79120000  0.13103000  1.0
  N  N81  1  0.19089000  0.20880000  0.86897000  1.0
  Cl  Cl82  1  0.19891000  0.56657000  0.39861000  1.0
  Cl  Cl83  1  0.80108000  0.43343000  0.60139000  1.0
  O  O84  1  0.52326000  0.47554000  0.80802000  1.0
  O  O85  1  0.47674000  0.52446000  0.19198000  1.0
  O  O86  1  0.71758000  0.40087000  0.97819000  1.0
  O  O87  1  0.28243000  0.59913000  0.02180000  1.0
  O  O88  1  0.54490000  0.05325000  0.17059000  1.0
  O  O89  1  0.45510000  0.94674000  0.82941000  1.0
  O  O90  1  0.62287000  0.94920000  0.35555000  1.0
  O  O91  1  0.37713000  0.05081000  0.64446000  1.0
  O  O92  1  0.11235000  0.14728000  0.51984000  1.0
  O  O93  1  0.88766000  0.85272000  0.48017000  1.0
  O  O94  1  0.85781000  0.08122000  0.22111000  1.0
  O  O95  1  0.14220000  0.91878000  0.77889000  1.0
  O  O96  1  0.04606000  0.96177000  0.13752000  1.0
  O  O97  1  0.95394000  0.03824000  0.86248000  1.0
  O  O98  1  0.71863000  0.13912000  0.96554000  1.0
  O  O99  1  0.28138000  0.86088000  0.03447000  1.0
