# generated using pymatgen
data_GdH14C24(NO3)2
_symmetry_space_group_name_H-M   'P 1'
_cell_length_a   12.55730000
_cell_length_b   14.20540000
_cell_length_c   14.83410000
_cell_angle_alpha   68.66530000
_cell_angle_beta   67.47370000
_cell_angle_gamma   78.08780000
_symmetry_Int_Tables_number   1
_chemical_formula_structural   GdH14C24(NO3)2
_chemical_formula_sum   'Gd4 H56 C96 N8 O24'
_cell_volume   2269.81784742
_cell_formula_units_Z   4
loop_
 _symmetry_equiv_pos_site_id
 _symmetry_equiv_pos_as_xyz
  1  'x, y, z'
loop_
 _atom_site_type_symbol
 _atom_site_label
 _atom_site_symmetry_multiplicity
 _atom_site_fract_x
 _atom_site_fract_y
 _atom_site_fract_z
 _atom_site_occupancy
  Gd  Gd0  1  0.06395000  0.51869000  0.59657000  1.0
  Gd  Gd1  1  0.93605000  0.48130000  0.40343000  1.0
  Gd  Gd2  1  0.44768000  0.94617000  0.90525000  1.0
  Gd  Gd3  1  0.55232000  0.05383000  0.09475000  1.0
  H  H4  1  0.80097000  0.21595000  0.81056000  1.0
  H  H5  1  0.19903000  0.78406000  0.18943000  1.0
  H  H6  1  0.30577000  0.28907000  0.77454000  1.0
  H  H7  1  0.69423000  0.71093000  0.22546000  1.0
  H  H8  1  0.05733000  0.21354000  0.51766000  1.0
  H  H9  1  0.94267000  0.78647000  0.48234000  1.0
  H  H10  1  0.82022000  0.97832000  0.68851000  1.0
  H  H11  1  0.17978000  0.02167000  0.31149000  1.0
  H  H12  1  0.70462000  0.70476000  0.72693000  1.0
  H  H13  1  0.29538000  0.29524000  0.27307000  1.0
  H  H14  1  0.99298000  0.05092000  0.53801000  1.0
  H  H15  1  0.00703000  0.94907000  0.46199000  1.0
  H  H16  1  0.33579000  0.27239000  0.05997000  1.0
  H  H17  1  0.66421000  0.72761000  0.94003000  1.0
  H  H18  1  0.11214000  0.50915000  0.92460000  1.0
  H  H19  1  0.88786000  0.49085000  0.07540000  1.0
  H  H20  1  0.51604000  0.94568000  0.56133000  1.0
  H  H21  1  0.48396000  0.05432000  0.43867000  1.0
  H  H22  1  0.72763000  0.71762000  0.42570000  1.0
  H  H23  1  0.27237000  0.28238000  0.57430000  1.0
  H  H24  1  0.31981000  0.54844000  0.39014000  1.0
  H  H25  1  0.68019000  0.45156000  0.60986000  1.0
  H  H26  1  0.19889000  0.42749000  0.06349000  1.0
  H  H27  1  0.80111000  0.57251000  0.93651000  1.0
  H  H28  1  0.89535000  0.65465000  0.75138000  1.0
  H  H29  1  0.10465000  0.34535000  0.24862000  1.0
  H  H30  1  0.45948000  0.69400000  0.03036000  1.0
  H  H31  1  0.54052000  0.30600000  0.96964000  1.0
  H  H32  1  0.38852000  0.93152000  0.42310000  1.0
  H  H33  1  0.61148000  0.06848000  0.57691000  1.0
  H  H34  1  0.33685000  0.54602000  0.13231000  1.0
  H  H35  1  0.66315000  0.45398000  0.86769000  1.0
  H  H36  1  0.48141000  0.82121000  0.31177000  1.0
  H  H37  1  0.51859000  0.17879000  0.68823000  1.0
  H  H38  1  0.47974000  0.66236000  0.27548000  1.0
  H  H39  1  0.52026000  0.33764000  0.72452000  1.0
  H  H40  1  0.23324000  0.96387000  0.57690000  1.0
  H  H41  1  0.76676000  0.03613000  0.42310000  1.0
  H  H42  1  0.27457000  0.12458000  0.78580000  1.0
  H  H43  1  0.72543000  0.87542000  0.21420000  1.0
  H  H44  1  0.59930000  0.87983000  0.41054000  1.0
  H  H45  1  0.40070000  0.12018000  0.58945000  1.0
  H  H46  1  0.13222000  0.56687000  0.13190000  1.0
  H  H47  1  0.86778000  0.43313000  0.86810000  1.0
  H  H48  1  0.97932000  0.67444000  0.06696000  1.0
  H  H49  1  0.02068000  0.32556000  0.93304000  1.0
  H  H50  1  0.88823000  0.79600000  0.81695000  1.0
  H  H51  1  0.11177000  0.20400000  0.18305000  1.0
  H  H52  1  0.05124000  0.91109000  0.72651000  1.0
  H  H53  1  0.94876000  0.08891000  0.27349000  1.0
  H  H54  1  0.93991000  0.02321000  0.86466000  1.0
  H  H55  1  0.06009000  0.97679000  0.13534000  1.0
  H  H56  1  0.07577000  0.16242000  0.77397000  1.0
  H  H57  1  0.92424000  0.83758000  0.22602000  1.0
  H  H58  1  0.90614000  0.84217000  0.97170000  1.0
  H  H59  1  0.09386000  0.15783000  0.02830000  1.0
  C  C60  1  0.84195000  0.18071000  0.75002000  1.0
  C  C61  1  0.15805000  0.81929000  0.24998000  1.0
  C  C62  1  0.70091000  0.04553000  0.85031000  1.0
  C  C63  1  0.29908000  0.95447000  0.14969000  1.0
  C  C64  1  0.80143000  0.09196000  0.75872000  1.0
  C  C65  1  0.19856000  0.90804000  0.24128000  1.0
  C  C66  1  0.96756000  0.32675000  0.64451000  1.0
  C  C67  1  0.03244000  0.67325000  0.35549000  1.0
  C  C68  1  0.93149000  0.22605000  0.66163000  1.0
  C  C69  1  0.06851000  0.77395000  0.33837000  1.0
  C  C70  1  0.40473000  0.17398000  0.91770000  1.0
  C  C71  1  0.59527000  0.82602000  0.08229000  1.0
  C  C72  1  0.60602000  0.82993000  0.65161000  1.0
  C  C73  1  0.39398000  0.17007000  0.34839000  1.0
  C  C74  1  0.28296000  0.31873000  0.83823000  1.0
  C  C75  1  0.71704000  0.68127000  0.16176000  1.0
  C  C76  1  0.32887000  0.27035000  0.91742000  1.0
  C  C77  1  0.67113000  0.72965000  0.08258000  1.0
  C  C78  1  0.98640000  0.17855000  0.58569000  1.0
  C  C79  1  0.01360000  0.82144000  0.41431000  1.0
  C  C80  1  0.14178000  0.74559000  0.58807000  1.0
  C  C81  1  0.85822000  0.25441000  0.41193000  1.0
  C  C82  1  0.23634000  0.72298000  0.50370000  1.0
  C  C83  1  0.76366000  0.27702000  0.49630000  1.0
  C  C84  1  0.85417000  0.04643000  0.68118000  1.0
  C  C85  1  0.14583000  0.95357000  0.31882000  1.0
  C  C86  1  0.15343000  0.44976000  0.75756000  1.0
  C  C87  1  0.84657000  0.55024000  0.24244000  1.0
  C  C88  1  0.68172000  0.74225000  0.65769000  1.0
  C  C89  1  0.31828000  0.25775000  0.34230000  1.0
  C  C90  1  0.94920000  0.08781000  0.59693000  1.0
  C  C91  1  0.05080000  0.91219000  0.40307000  1.0
  C  C92  1  0.20571000  0.40467000  0.84060000  1.0
  C  C93  1  0.79429000  0.59533000  0.15940000  1.0
  C  C94  1  0.80335000  0.60632000  0.58029000  1.0
  C  C95  1  0.19665000  0.39368000  0.41970000  1.0
  C  C96  1  0.55384000  0.87079000  0.73999000  1.0
  C  C97  1  0.44616000  0.12921000  0.26001000  1.0
  C  C98  1  0.29967000  0.31051000  0.99830000  1.0
  C  C99  1  0.70033000  0.68949000  0.00170000  1.0
  C  C100  1  0.18134000  0.89884000  0.92147000  1.0
  C  C101  1  0.81867000  0.10116000  0.07852000  1.0
  C  C102  1  0.72474000  0.70194000  0.57634000  1.0
  C  C103  1  0.27526000  0.29806000  0.42366000  1.0
  C  C104  1  0.17437000  0.44322000  0.92260000  1.0
  C  C105  1  0.82563000  0.55678000  0.07740000  1.0
  C  C106  1  0.22328000  0.80117000  0.97732000  1.0
  C  C107  1  0.77672000  0.19883000  0.02268000  1.0
  C  C108  1  0.32498000  0.79109000  0.44524000  1.0
  C  C109  1  0.67502000  0.20890000  0.55476000  1.0
  C  C110  1  0.57655000  0.87868000  0.56271000  1.0
  C  C111  1  0.42345000  0.12132000  0.43729000  1.0
  C  C112  1  0.69410000  0.75135000  0.48753000  1.0
  C  C113  1  0.30590000  0.24866000  0.51247000  1.0
  C  C114  1  0.32263000  0.61830000  0.40328000  1.0
  C  C115  1  0.67737000  0.38170000  0.59672000  1.0
  C  C116  1  0.22269000  0.39679000  0.00028000  1.0
  C  C117  1  0.77731000  0.60321000  0.99972000  1.0
  C  C118  1  0.96520000  0.70485000  0.71557000  1.0
  C  C119  1  0.03480000  0.29515000  0.28443000  1.0
  C  C120  1  0.14374000  0.83081000  0.61623000  1.0
  C  C121  1  0.85626000  0.16919000  0.38378000  1.0
  C  C122  1  0.06676000  0.91239000  0.91932000  1.0
  C  C123  1  0.93324000  0.08761000  0.08067000  1.0
  C  C124  1  0.14871000  0.72098000  0.02988000  1.0
  C  C125  1  0.85129000  0.27902000  0.97012000  1.0
  C  C126  1  0.37092000  0.69957000  0.03182000  1.0
  C  C127  1  0.62908000  0.30043000  0.96818000  1.0
  C  C128  1  0.32119000  0.87915000  0.47221000  1.0
  C  C129  1  0.67881000  0.12085000  0.52780000  1.0
  C  C130  1  0.30214000  0.61676000  0.08811000  1.0
  C  C131  1  0.69786000  0.38324000  0.91189000  1.0
  C  C132  1  0.41402000  0.76913000  0.36057000  1.0
  C  C133  1  0.58598000  0.23087000  0.63943000  1.0
  C  C134  1  0.41251000  0.68231000  0.33985000  1.0
  C  C135  1  0.58749000  0.31768000  0.66015000  1.0
  C  C136  1  0.23514000  0.89719000  0.55598000  1.0
  C  C137  1  0.76486000  0.10281000  0.44402000  1.0
  C  C138  1  0.21444000  0.06548000  0.82159000  1.0
  C  C139  1  0.78556000  0.93452000  0.17841000  1.0
  C  C140  1  0.62173000  0.84054000  0.48001000  1.0
  C  C141  1  0.37827000  0.15946000  0.51999000  1.0
  C  C142  1  0.19049000  0.62751000  0.08742000  1.0
  C  C143  1  0.80951000  0.37249000  0.91258000  1.0
  C  C144  1  0.03421000  0.73733000  0.02563000  1.0
  C  C145  1  0.96579000  0.26267000  0.97436000  1.0
  C  C146  1  0.96163000  0.78469000  0.75142000  1.0
  C  C147  1  0.03837000  0.21531000  0.24858000  1.0
  C  C148  1  0.05135000  0.84762000  0.70178000  1.0
  C  C149  1  0.94865000  0.15238000  0.29822000  1.0
  C  C150  1  0.02840000  0.00949000  0.86516000  1.0
  C  C151  1  0.97160000  0.99051000  0.13484000  1.0
  C  C152  1  0.10276000  0.08615000  0.81517000  1.0
  C  C153  1  0.89724000  0.91384000  0.18482000  1.0
  C  C154  1  0.99450000  0.82949000  0.97267000  1.0
  C  C155  1  0.00550000  0.17050000  0.02732000  1.0
  N  N156  1  0.23586000  0.63761000  0.48261000  1.0
  N  N157  1  0.76414000  0.36238000  0.51739000  1.0
  N  N158  1  0.05260000  0.68498000  0.63687000  1.0
  N  N159  1  0.94740000  0.31502000  0.36313000  1.0
  N  N160  1  0.25261000  0.97558000  0.87392000  1.0
  N  N161  1  0.74739000  0.02442000  0.12608000  1.0
  N  N162  1  0.33294000  0.78936000  0.97888000  1.0
  N  N163  1  0.66706000  0.21064000  0.02111000  1.0
  O  O164  1  0.05045000  0.49161000  0.77797000  1.0
  O  O165  1  0.94955000  0.50839000  0.22203000  1.0
  O  O166  1  0.69701000  0.04320000  0.93810000  1.0
  O  O167  1  0.30300000  0.95680000  0.06190000  1.0
  O  O168  1  0.62797000  0.01131000  0.83260000  1.0
  O  O169  1  0.37203000  0.98869000  0.16740000  1.0
  O  O170  1  0.97040000  0.39606000  0.55904000  1.0
  O  O171  1  0.02960000  0.60394000  0.44096000  1.0
  O  O172  1  0.57215000  0.82157000  0.82449000  1.0
  O  O173  1  0.42786000  0.17843000  0.17551000  1.0
  O  O174  1  0.80725000  0.56179000  0.51852000  1.0
  O  O175  1  0.19275000  0.43821000  0.48148000  1.0
  O  O176  1  0.86127000  0.57690000  0.64155000  1.0
  O  O177  1  0.13873000  0.42311000  0.35845000  1.0
  O  O178  1  0.48979000  0.95458000  0.72977000  1.0
  O  O179  1  0.51021000  0.04542000  0.27023000  1.0
  O  O180  1  0.46815000  0.14567000  0.97350000  1.0
  O  O181  1  0.53185000  0.85433000  0.02650000  1.0
  O  O182  1  0.99648000  0.34369000  0.70960000  1.0
  O  O183  1  0.00352000  0.65631000  0.29041000  1.0
  O  O184  1  0.21297000  0.44254000  0.66819000  1.0
  O  O185  1  0.78703000  0.55746000  0.33181000  1.0
  O  O186  1  0.40039000  0.12413000  0.86318000  1.0
  O  O187  1  0.59961000  0.87587000  0.13682000  1.0
