# generated using pymatgen
data_CdH8C9N7ClO
_symmetry_space_group_name_H-M   'P 1'
_cell_length_a   8.21566000
_cell_length_b   8.21566000
_cell_length_c   17.97500000
_cell_angle_alpha   94.48610000
_cell_angle_beta   94.48650000
_cell_angle_gamma   92.88710000
_symmetry_Int_Tables_number   1
_chemical_formula_structural   CdH8C9N7ClO
_chemical_formula_sum   'Cd4 H32 C36 N28 Cl4 O4'
_cell_volume   1203.88742799
_cell_formula_units_Z   4
loop_
 _symmetry_equiv_pos_site_id
 _symmetry_equiv_pos_as_xyz
  1  'x, y, z'
loop_
 _atom_site_type_symbol
 _atom_site_label
 _atom_site_symmetry_multiplicity
 _atom_site_fract_x
 _atom_site_fract_y
 _atom_site_fract_z
 _atom_site_occupancy
  Cd  Cd0  1  0.08023000  0.62138000  0.19220000  1.0
  Cd  Cd1  1  0.37862000  0.91976000  0.30780000  1.0
  Cd  Cd2  1  0.91976000  0.37862000  0.80780000  1.0
  Cd  Cd3  1  0.62138000  0.08024000  0.69220000  1.0
  H  H4  1  0.17563000  0.00312000  0.05858000  1.0
  H  H5  1  0.99687000  0.82437000  0.44142000  1.0
  H  H6  1  0.82436000  0.99687000  0.94142000  1.0
  H  H7  1  0.00313000  0.17563000  0.55858000  1.0
  H  H8  1  0.76566000  0.57103000  0.10225000  1.0
  H  H9  1  0.42897000  0.23434000  0.39775000  1.0
  H  H10  1  0.23433000  0.42897000  0.89775000  1.0
  H  H11  1  0.57103000  0.76566000  0.60225000  1.0
  H  H12  1  0.82572000  0.75429000  0.10850000  1.0
  H  H13  1  0.24571000  0.17428000  0.39150000  1.0
  H  H14  1  0.17428000  0.24571000  0.89150000  1.0
  H  H15  1  0.75429000  0.82572000  0.60850000  1.0
  H  H16  1  0.04858000  0.14475000  0.17614000  1.0
  H  H17  1  0.85524000  0.95142000  0.32386000  1.0
  H  H18  1  0.95142000  0.85524000  0.82386000  1.0
  H  H19  1  0.14476000  0.04858000  0.67614000  1.0
  H  H20  1  0.45579000  0.18602000  0.84488000  1.0
  H  H21  1  0.81398000  0.54423000  0.65511000  1.0
  H  H22  1  0.54421000  0.81398000  0.15511000  1.0
  H  H23  1  0.18602000  0.45578000  0.34489000  1.0
  H  H24  1  0.33089000  0.06813000  0.95104000  1.0
  H  H25  1  0.93188000  0.66912000  0.54895000  1.0
  H  H26  1  0.66913000  0.93188000  0.04896000  1.0
  H  H27  1  0.06813000  0.33088000  0.45104000  1.0
  H  H28  1  0.44235000  0.59033000  0.85469000  1.0
  H  H29  1  0.40967000  0.55766000  0.64532000  1.0
  H  H30  1  0.55766000  0.40967000  0.14532000  1.0
  H  H31  1  0.59033000  0.44235000  0.35468000  1.0
  H  H32  1  0.56489000  0.72923000  0.75350000  1.0
  H  H33  1  0.27076000  0.43511000  0.74650000  1.0
  H  H34  1  0.43511000  0.27076000  0.24650000  1.0
  H  H35  1  0.72923000  0.56489000  0.25350000  1.0
  C  C36  1  0.29337000  0.73372000  0.96987000  1.0
  C  C37  1  0.26629000  0.70663000  0.53013000  1.0
  C  C38  1  0.70664000  0.26628000  0.03013000  1.0
  C  C39  1  0.73372000  0.29336000  0.46987000  1.0
  C  C40  1  0.21048000  0.54074000  0.03116000  1.0
  C  C41  1  0.45925000  0.78951000  0.46883000  1.0
  C  C42  1  0.78951000  0.45926000  0.96883000  1.0
  C  C43  1  0.54075000  0.21049000  0.53117000  1.0
  C  C44  1  0.09289000  0.20669000  0.12985000  1.0
  C  C45  1  0.79331000  0.90710000  0.37015000  1.0
  C  C46  1  0.90710000  0.79331000  0.87015000  1.0
  C  C47  1  0.20669000  0.09290000  0.62985000  1.0
  C  C48  1  0.17239000  0.38193000  0.05710000  1.0
  C  C49  1  0.61807000  0.82761000  0.44290000  1.0
  C  C50  1  0.82760000  0.61807000  0.94290000  1.0
  C  C51  1  0.38193000  0.17240000  0.55710000  1.0
  C  C52  1  0.44907000  0.05412000  0.84894000  1.0
  C  C53  1  0.94588000  0.55094000  0.65106000  1.0
  C  C54  1  0.55093000  0.94588000  0.15106000  1.0
  C  C55  1  0.05412000  0.44907000  0.34894000  1.0
  C  C56  1  0.37784000  0.98662000  0.90807000  1.0
  C  C57  1  0.01340000  0.62216000  0.59193000  1.0
  C  C58  1  0.62216000  0.01339000  0.09193000  1.0
  C  C59  1  0.98661000  0.37784000  0.40807000  1.0
  C  C60  1  0.36915000  0.81637000  0.91113000  1.0
  C  C61  1  0.18363000  0.63085000  0.58887000  1.0
  C  C62  1  0.63086000  0.18363000  0.08887000  1.0
  C  C63  1  0.81636000  0.36914000  0.41113000  1.0
  C  C64  1  0.43949000  0.72258000  0.85445000  1.0
  C  C65  1  0.27742000  0.56052000  0.64555000  1.0
  C  C66  1  0.56053000  0.27742000  0.14556000  1.0
  C  C67  1  0.72258000  0.43948000  0.35445000  1.0
  C  C68  1  0.50875000  0.79953000  0.79764000  1.0
  C  C69  1  0.20047000  0.49125000  0.70237000  1.0
  C  C70  1  0.49125000  0.20047000  0.20237000  1.0
  C  C71  1  0.79953000  0.50875000  0.29763000  1.0
  N  N72  1  0.17793000  0.68048000  0.07046000  1.0
  N  N73  1  0.31951000  0.82207000  0.42954000  1.0
  N  N74  1  0.82206000  0.31951000  0.92953000  1.0
  N  N75  1  0.68048000  0.17793000  0.57046000  1.0
  N  N76  1  0.23027000  0.80499000  0.03112000  1.0
  N  N77  1  0.19500000  0.76973000  0.46888000  1.0
  N  N78  1  0.76974000  0.19500000  0.96889000  1.0
  N  N79  1  0.80500000  0.23027000  0.53112000  1.0
  N  N80  1  0.28188000  0.56792000  0.96816000  1.0
  N  N81  1  0.43207000  0.71811000  0.53184000  1.0
  N  N82  1  0.71811000  0.43207000  0.03184000  1.0
  N  N83  1  0.56793000  0.28189000  0.46816000  1.0
  N  N84  1  0.20383000  0.23815000  0.02295000  1.0
  N  N85  1  0.76185000  0.79617000  0.47705000  1.0
  N  N86  1  0.79616000  0.76184000  0.97705000  1.0
  N  N87  1  0.23815000  0.20384000  0.52295000  1.0
  N  N88  1  0.15245000  0.12866000  0.07025000  1.0
  N  N89  1  0.87134000  0.84755000  0.42975000  1.0
  N  N90  1  0.84755000  0.87133000  0.92975000  1.0
  N  N91  1  0.12867000  0.15245000  0.57025000  1.0
  N  N92  1  0.10270000  0.36754000  0.12313000  1.0
  N  N93  1  0.63246000  0.89729000  0.37687000  1.0
  N  N94  1  0.89729000  0.63246000  0.87687000  1.0
  N  N95  1  0.36754000  0.10271000  0.62313000  1.0
  N  N96  1  0.51199000  0.96304000  0.79382000  1.0
  N  N97  1  0.03696000  0.48802000  0.70618000  1.0
  N  N98  1  0.48802000  0.03696000  0.20618000  1.0
  N  N99  1  0.96304000  0.51198000  0.29382000  1.0
  Cl  Cl100  1  0.38456000  0.61544000  0.25000000  1.0
  Cl  Cl101  1  0.61544000  0.38456000  0.75000000  1.0
  Cl  Cl102  1  0.07650000  0.92350000  0.25000000  1.0
  Cl  Cl103  1  0.92350000  0.07650000  0.75000000  1.0
  O  O104  1  0.81265000  0.66387000  0.14015000  1.0
  O  O105  1  0.33613000  0.18735000  0.35985000  1.0
  O  O106  1  0.18735000  0.33613000  0.85985000  1.0
  O  O107  1  0.66387000  0.81265000  0.64015000  1.0
