# generated using pymatgen
data_BaH12C12S4(NO5)2
_symmetry_space_group_name_H-M   'P 1'
_cell_length_a   7.51258000
_cell_length_b   11.40740000
_cell_length_c   12.46630520
_cell_angle_alpha   62.78460503
_cell_angle_beta   80.35962692
_cell_angle_gamma   89.99250000
_symmetry_Int_Tables_number   1
_chemical_formula_structural   BaH12C12S4(NO5)2
_chemical_formula_sum   'Ba2 H24 C24 S8 N4 O20'
_cell_volume   933.09160419
_cell_formula_units_Z   2
loop_
 _symmetry_equiv_pos_site_id
 _symmetry_equiv_pos_as_xyz
  1  'x, y, z'
loop_
 _atom_site_type_symbol
 _atom_site_label
 _atom_site_symmetry_multiplicity
 _atom_site_fract_x
 _atom_site_fract_y
 _atom_site_fract_z
 _atom_site_occupancy
  Ba  Ba0  1  0.75014000  0.78653000  0.00001000  1.0
  Ba  Ba1  1  0.24986000  0.21347000  0.99999000  1.0
  H  H2  1  0.03341000  0.54616000  0.12726000  1.0
  H  H3  1  0.46691000  0.67337000  0.87272000  1.0
  H  H4  1  0.96659000  0.45383000  0.87275000  1.0
  H  H5  1  0.53308000  0.32663000  0.12728000  1.0
  H  H6  1  0.87817000  0.46624000  0.11403000  1.0
  H  H7  1  0.62216000  0.58022000  0.88588000  1.0
  H  H8  1  0.12184000  0.53375000  0.88597000  1.0
  H  H9  1  0.37784000  0.41979000  0.11411000  1.0
  H  H10  1  0.98378000  0.83199000  0.40944000  1.0
  H  H11  1  0.51590000  0.24136000  0.59069000  1.0
  H  H12  1  0.01621000  0.16802000  0.59056000  1.0
  H  H13  1  0.48410000  0.75864000  0.40931000  1.0
  H  H14  1  0.01839000  0.68350000  0.62669000  1.0
  H  H15  1  0.48129000  0.31008000  0.37353000  1.0
  H  H16  1  0.98161000  0.31651000  0.37331000  1.0
  H  H17  1  0.51872000  0.68991000  0.62647000  1.0
  H  H18  1  0.19427000  0.48824000  0.67471000  1.0
  H  H19  1  0.30566000  0.16300000  0.32526000  1.0
  H  H20  1  0.80573000  0.51176000  0.32529000  1.0
  H  H21  1  0.69434000  0.83700000  0.67474000  1.0
  H  H22  1  0.33909000  0.43464000  0.50952000  1.0
  H  H23  1  0.16109000  0.94408000  0.49038000  1.0
  H  H24  1  0.66091000  0.56536000  0.49048000  1.0
  H  H25  1  0.83891000  0.05592000  0.50962000  1.0
  C  C26  1  0.24668000  0.60644000  0.36724000  1.0
  C  C27  1  0.25330000  0.97360000  0.63273000  1.0
  C  C28  1  0.75332000  0.39356000  0.63276000  1.0
  C  C29  1  0.74670000  0.02640000  0.36727000  1.0
  C  C30  1  0.14739000  0.71640000  0.34060000  1.0
  C  C31  1  0.35255000  0.05682000  0.65948000  1.0
  C  C32  1  0.85260000  0.28361000  0.65940000  1.0
  C  C33  1  0.64745000  0.94318000  0.34052000  1.0
  C  C34  1  0.06239000  0.74627000  0.43191000  1.0
  C  C35  1  0.43741000  0.17806000  0.56823000  1.0
  C  C36  1  0.93762000  0.25373000  0.56809000  1.0
  C  C37  1  0.56259000  0.82194000  0.43177000  1.0
  C  C38  1  0.08220000  0.66308000  0.55257000  1.0
  C  C39  1  0.41749000  0.21558000  0.44757000  1.0
  C  C40  1  0.91780000  0.33692000  0.44743000  1.0
  C  C41  1  0.58252000  0.78442000  0.55243000  1.0
  C  C42  1  0.18090000  0.55194000  0.58008000  1.0
  C  C43  1  0.31889000  0.13200000  0.41993000  1.0
  C  C44  1  0.81910000  0.44806000  0.41992000  1.0
  C  C45  1  0.68112000  0.86800000  0.58007000  1.0
  C  C46  1  0.26322000  0.52146000  0.48760000  1.0
  C  C47  1  0.23667000  0.00906000  0.51236000  1.0
  C  C48  1  0.73678000  0.47855000  0.51240000  1.0
  C  C49  1  0.76333000  0.99094000  0.48764000  1.0
  S  S50  1  0.34175000  0.59945000  0.22867000  1.0
  S  S51  1  0.15828000  0.82803000  0.77125000  1.0
  S  S52  1  0.65825000  0.40055000  0.77133000  1.0
  S  S53  1  0.84172000  0.17197000  0.22875000  1.0
  S  S54  1  0.13940000  0.80111000  0.18144000  1.0
  S  S55  1  0.36054000  0.98234000  0.81864000  1.0
  S  S56  1  0.86059000  0.19890000  0.81856000  1.0
  S  S57  1  0.63946000  0.01766000  0.18136000  1.0
  N  N58  1  0.31256000  0.74561000  0.13074000  1.0
  N  N59  1  0.18740000  0.87617000  0.86927000  1.0
  N  N60  1  0.68743000  0.25439000  0.86926000  1.0
  N  N61  1  0.81260000  0.12383000  0.13073000  1.0
  O  O62  1  0.92928000  0.55650000  0.08664000  1.0
  O  O63  1  0.57105000  0.64308000  0.91331000  1.0
  O  O64  1  0.07073000  0.44352000  0.91335000  1.0
  O  O65  1  0.42894000  0.35692000  0.08669000  1.0
  O  O66  1  0.53578000  0.58451000  0.22179000  1.0
  O  O67  1  0.96424000  0.80622000  0.77811000  1.0
  O  O68  1  0.46422000  0.41549000  0.77821000  1.0
  O  O69  1  0.03575000  0.19378000  0.22189000  1.0
  O  O70  1  0.23959000  0.49489000  0.22079000  1.0
  O  O71  1  0.26049000  0.71560000  0.77909000  1.0
  O  O72  1  0.76041000  0.50512000  0.77921000  1.0
  O  O73  1  0.73951000  0.28440000  0.22091000  1.0
  O  O74  1  0.16686000  0.94270000  0.13420000  1.0
  O  O75  1  0.33289000  0.07666000  0.86592000  1.0
  O  O76  1  0.83313000  0.05730000  0.86580000  1.0
  O  O77  1  0.66711000  0.92333000  0.13408000  1.0
  O  O78  1  0.96791000  0.75316000  0.16917000  1.0
  O  O79  1  0.53208000  0.92217000  0.83092000  1.0
  O  O80  1  0.03208000  0.24683000  0.83084000  1.0
  O  O81  1  0.46792000  0.07782000  0.16908000  1.0
