# generated using pymatgen
data_Cu2H8C12S3N4
_symmetry_space_group_name_H-M   'P 1'
_cell_length_a   5.67055000
_cell_length_b   8.95049000
_cell_length_c   14.60520000
_cell_angle_alpha   73.55600000
_cell_angle_beta   89.99970000
_cell_angle_gamma   89.99960000
_symmetry_Int_Tables_number   1
_chemical_formula_structural   Cu2H8C12S3N4
_chemical_formula_sum   'Cu4 H16 C24 S6 N8'
_cell_volume   710.95477849
_cell_formula_units_Z   2
loop_
 _symmetry_equiv_pos_site_id
 _symmetry_equiv_pos_as_xyz
  1  'x, y, z'
loop_
 _atom_site_type_symbol
 _atom_site_label
 _atom_site_symmetry_multiplicity
 _atom_site_fract_x
 _atom_site_fract_y
 _atom_site_fract_z
 _atom_site_occupancy
  Cu  Cu0  1  0.39448000  0.62747000  0.51435000  1.0
  Cu  Cu1  1  0.39445000  0.37253000  0.98565000  1.0
  Cu  Cu2  1  0.60555000  0.37253000  0.48564000  1.0
  Cu  Cu3  1  0.60553000  0.62747000  0.01435000  1.0
  H  H4  1  0.82232000  0.55657000  0.63462000  1.0
  H  H5  1  0.82230000  0.44344000  0.86538000  1.0
  H  H6  1  0.17772000  0.44345000  0.36537000  1.0
  H  H7  1  0.17768000  0.55657000  0.13462000  1.0
  H  H8  1  0.07734000  0.69492000  0.72276000  1.0
  H  H9  1  0.07734000  0.30509000  0.77724000  1.0
  H  H10  1  0.92267000  0.30510000  0.27723000  1.0
  H  H11  1  0.92265000  0.69492000  0.22277000  1.0
  H  H12  1  0.56509000  0.07059000  0.65523000  1.0
  H  H13  1  0.56509000  0.92941000  0.84477000  1.0
  H  H14  1  0.43489000  0.92940000  0.34477000  1.0
  H  H15  1  0.43489000  0.07059000  0.15523000  1.0
  H  H16  1  0.32990000  0.91392000  0.57350000  1.0
  H  H17  1  0.32988000  0.08608000  0.92650000  1.0
  H  H18  1  0.67012000  0.08607000  0.42649000  1.0
  H  H19  1  0.67010000  0.91393000  0.07350000  1.0
  C  C20  1  0.77094000  0.67032000  0.64145000  1.0
  C  C21  1  0.77092000  0.32968000  0.85854000  1.0
  C  C22  1  0.22910000  0.32969000  0.35854000  1.0
  C  C23  1  0.22906000  0.67033000  0.14146000  1.0
  C  C24  1  0.91354000  0.74829000  0.69023000  1.0
  C  C25  1  0.91354000  0.25171000  0.80977000  1.0
  C  C26  1  0.08646000  0.25171000  0.30977000  1.0
  C  C27  1  0.08645000  0.74829000  0.19023000  1.0
  C  C28  1  0.84253000  0.89506000  0.69672000  1.0
  C  C29  1  0.84253000  0.10494000  0.80328000  1.0
  C  C30  1  0.15747000  0.10494000  0.30329000  1.0
  C  C31  1  0.15746000  0.89506000  0.19672000  1.0
  C  C32  1  0.62832000  0.95626000  0.65399000  1.0
  C  C33  1  0.62832000  0.04374000  0.84601000  1.0
  C  C34  1  0.37167000  0.04373000  0.34601000  1.0
  C  C35  1  0.37166000  0.95627000  0.15400000  1.0
  C  C36  1  0.49659000  0.86935000  0.60770000  1.0
  C  C37  1  0.49658000  0.13066000  0.89231000  1.0
  C  C38  1  0.50342000  0.13065000  0.39230000  1.0
  C  C39  1  0.50340000  0.86935000  0.10770000  1.0
  C  C40  1  0.90576000  0.66570000  0.42553000  1.0
  C  C41  1  0.90572000  0.33430000  0.07448000  1.0
  C  C42  1  0.09427000  0.33429000  0.57447000  1.0
  C  C43  1  0.09423000  0.66570000  0.92553000  1.0
  S  S44  1  0.03438000  0.00000000  0.75000000  1.0
  S  S45  1  0.96560000  0.00000000  0.25000000  1.0
  S  S46  1  0.64521000  0.63813000  0.38381000  1.0
  S  S47  1  0.64519000  0.36186000  0.11619000  1.0
  S  S48  1  0.35482000  0.36185000  0.61619000  1.0
  S  S49  1  0.35480000  0.63814000  0.88381000  1.0
  N  N50  1  0.56507000  0.72857000  0.59999000  1.0
  N  N51  1  0.56506000  0.27143000  0.90001000  1.0
  N  N52  1  0.43495000  0.27143000  0.40000000  1.0
  N  N53  1  0.43492000  0.72857000  0.09999000  1.0
  N  N54  1  0.09344000  0.68191000  0.45666000  1.0
  N  N55  1  0.09344000  0.31808000  0.04334000  1.0
  N  N56  1  0.90657000  0.31808000  0.54334000  1.0
  N  N57  1  0.90657000  0.68191000  0.95666000  1.0
