# generated using pymatgen
data_NiH28C20(NO2)4
_symmetry_space_group_name_H-M   'P 1'
_cell_length_a   7.94974000
_cell_length_b   7.96842000
_cell_length_c   9.46903000
_cell_angle_alpha   69.23600000
_cell_angle_beta   82.34300000
_cell_angle_gamma   73.60290000
_symmetry_Int_Tables_number   1
_chemical_formula_structural   NiH28C20(NO2)4
_chemical_formula_sum   'Ni1 H28 C20 N4 O8'
_cell_volume   537.69382038
_cell_formula_units_Z   1
loop_
 _symmetry_equiv_pos_site_id
 _symmetry_equiv_pos_as_xyz
  1  'x, y, z'
loop_
 _atom_site_type_symbol
 _atom_site_label
 _atom_site_symmetry_multiplicity
 _atom_site_fract_x
 _atom_site_fract_y
 _atom_site_fract_z
 _atom_site_occupancy
  Ni  Ni0  1  0.00000000  0.00000000  0.00000000  1.0
  H  H1  1  0.11139000  0.83745000  0.26423000  1.0
  H  H2  1  0.88862000  0.16255000  0.73578000  1.0
  H  H3  1  0.02824000  0.73335000  0.91203000  1.0
  H  H4  1  0.97177000  0.26665000  0.08797000  1.0
  H  H5  1  0.28696000  0.53987000  0.25355000  1.0
  H  H6  1  0.71304000  0.46014000  0.74645000  1.0
  H  H7  1  0.29766000  0.64408000  0.05369000  1.0
  H  H8  1  0.70234000  0.35593000  0.94632000  1.0
  H  H9  1  0.05675000  0.46906000  0.14626000  1.0
  H  H10  1  0.94326000  0.53094000  0.85374000  1.0
  H  H11  1  0.95360000  0.62707000  0.24139000  1.0
  H  H12  1  0.04640000  0.37292000  0.75861000  1.0
  H  H13  1  0.70016000  0.79829000  0.09569000  1.0
  H  H14  1  0.29985000  0.20170000  0.90432000  1.0
  H  H15  1  0.75438000  0.62300000  0.01143000  1.0
  H  H16  1  0.24562000  0.37699000  0.98857000  1.0
  H  H17  1  0.56934000  0.88028000  0.83602000  1.0
  H  H18  1  0.43067000  0.11972000  0.16398000  1.0
  H  H19  1  0.78118000  0.88061000  0.75426000  1.0
  H  H20  1  0.21883000  0.11939000  0.24575000  1.0
  H  H21  1  0.42404000  0.80357000  0.25566000  1.0
  H  H22  1  0.57596000  0.19643000  0.74435000  1.0
  H  H23  1  0.41599000  0.87726000  0.05543000  1.0
  H  H24  1  0.58402000  0.12273000  0.94458000  1.0
  H  H25  1  0.87618000  0.44909000  0.48295000  1.0
  H  H26  1  0.12381000  0.55092000  0.51703000  1.0
  H  H27  1  0.50394000  0.32848000  0.36637000  1.0
  H  H28  1  0.49605000  0.67153000  0.63363000  1.0
  C  C29  1  0.21514000  0.64690000  0.15628000  1.0
  C  C30  1  0.78486000  0.35311000  0.84372000  1.0
  C  C31  1  0.04023000  0.61157000  0.14429000  1.0
  C  C32  1  0.95978000  0.38843000  0.85571000  1.0
  C  C33  1  0.77107000  0.76080000  0.99895000  1.0
  C  C34  1  0.22893000  0.23920000  0.00105000  1.0
  C  C35  1  0.69483000  0.90345000  0.85060000  1.0
  C  C36  1  0.30518000  0.09654000  0.14940000  1.0
  C  C37  1  0.34206000  0.89445000  0.15806000  1.0
  C  C38  1  0.65794000  0.10555000  0.84194000  1.0
  C  C39  1  0.64085000  0.04567000  0.39808000  1.0
  C  C40  1  0.35914000  0.95433000  0.60191000  1.0
  C  C41  1  0.63973000  0.85890000  0.47575000  1.0
  C  C42  1  0.36027000  0.14110000  0.52425000  1.0
  C  C43  1  0.50199000  0.18431000  0.42632000  1.0
  C  C44  1  0.49801000  0.81569000  0.57368000  1.0
  C  C45  1  0.77177000  0.10257000  0.26994000  1.0
  C  C46  1  0.22822000  0.89744000  0.73005000  1.0
  C  C47  1  0.79740000  0.70577000  0.47154000  1.0
  C  C48  1  0.20260000  0.29423000  0.52846000  1.0
  N  N49  1  0.18161000  0.83431000  0.16561000  1.0
  N  N50  1  0.81840000  0.16569000  0.83440000  1.0
  N  N51  1  0.95609000  0.75237000  0.00785000  1.0
  N  N52  1  0.04392000  0.24763000  0.99215000  1.0
  O  O53  1  0.80811000  0.00209000  0.18395000  1.0
  O  O54  1  0.19188000  0.99790000  0.81605000  1.0
  O  O55  1  0.82335000  0.24405000  0.25329000  1.0
  O  O56  1  0.17664000  0.75596000  0.74671000  1.0
  O  O57  1  0.94809000  0.71940000  0.47872000  1.0
  O  O58  1  0.05189000  0.28060000  0.52128000  1.0
  O  O59  1  0.76290000  0.55290000  0.46996000  1.0
  O  O60  1  0.23708000  0.44711000  0.53002000  1.0
