# generated using pymatgen
data_CuH17C17(NO2)2
_symmetry_space_group_name_H-M   'P 1'
_cell_length_a   7.34903000
_cell_length_b   13.85350000
_cell_length_c   19.29368514
_cell_angle_alpha   87.36527280
_cell_angle_beta   80.16112417
_cell_angle_gamma   74.62410000
_symmetry_Int_Tables_number   1
_chemical_formula_structural   CuH17C17(NO2)2
_chemical_formula_sum   'Cu4 H68 C68 N8 O16'
_cell_volume   1866.12158641
_cell_formula_units_Z   4
loop_
 _symmetry_equiv_pos_site_id
 _symmetry_equiv_pos_as_xyz
  1  'x, y, z'
loop_
 _atom_site_type_symbol
 _atom_site_label
 _atom_site_symmetry_multiplicity
 _atom_site_fract_x
 _atom_site_fract_y
 _atom_site_fract_z
 _atom_site_occupancy
  Cu  Cu0  1  0.75178000  0.22929000  0.19151000  1.0
  Cu  Cu1  1  0.51800000  0.22943000  0.30858000  1.0
  Cu  Cu2  1  0.24820000  0.77072000  0.80849000  1.0
  Cu  Cu3  1  0.48196000  0.77058000  0.69142000  1.0
  H  H4  1  0.16999000  0.20819000  0.16380000  1.0
  H  H5  1  0.12064000  0.20913000  0.33615000  1.0
  H  H6  1  0.83002000  0.79180000  0.83620000  1.0
  H  H7  1  0.87934000  0.79088000  0.66385000  1.0
  H  H8  1  0.44378000  0.20615000  0.06594000  1.0
  H  H9  1  0.84957000  0.20675000  0.43423000  1.0
  H  H10  1  0.55624000  0.79384000  0.93405000  1.0
  H  H11  1  0.15041000  0.79327000  0.56577000  1.0
  H  H12  1  0.03280000  0.26921000  0.92304000  1.0
  H  H13  1  0.19873000  0.26922000  0.57684000  1.0
  H  H14  1  0.96722000  0.73078000  0.07695000  1.0
  H  H15  1  0.80127000  0.73078000  0.42315000  1.0
  H  H16  1  0.77796000  0.26543000  0.02676000  1.0
  H  H17  1  0.45681000  0.26546000  0.47291000  1.0
  H  H18  1  0.22203000  0.73458000  0.97324000  1.0
  H  H19  1  0.54320000  0.73454000  0.52709000  1.0
  H  H20  1  0.36907000  0.25310000  0.87421000  1.0
  H  H21  1  0.87857000  0.25273000  0.62586000  1.0
  H  H22  1  0.63093000  0.74690000  0.12579000  1.0
  H  H23  1  0.12142000  0.74729000  0.37414000  1.0
  H  H24  1  0.61796000  0.35338000  0.84068000  1.0
  H  H25  1  0.52989000  0.35294000  0.65934000  1.0
  H  H26  1  0.38205000  0.64662000  0.15932000  1.0
  H  H27  1  0.47008000  0.64707000  0.34066000  1.0
  H  H28  1  0.90318000  0.35345000  0.75002000  1.0
  H  H29  1  0.24412000  0.35312000  0.74984000  1.0
  H  H30  1  0.09685000  0.64655000  0.24999000  1.0
  H  H31  1  0.75586000  0.64688000  0.25016000  1.0
  H  H32  1  0.04448000  0.98026000  0.91297000  1.0
  H  H33  1  0.47512000  0.98018000  0.58700000  1.0
  H  H34  1  0.95551000  0.01974000  0.08704000  1.0
  H  H35  1  0.52490000  0.01983000  0.41300000  1.0
  H  H36  1  0.79614000  0.99439000  0.91598000  1.0
  H  H37  1  0.70939000  0.99433000  0.58388000  1.0
  H  H38  1  0.20388000  0.00560000  0.08402000  1.0
  H  H39  1  0.29062000  0.00567000  0.41612000  1.0
  H  H40  1  0.86945000  0.06135000  0.97622000  1.0
  H  H41  1  0.56892000  0.06137000  0.52367000  1.0
  H  H42  1  0.13057000  0.93864000  0.02378000  1.0
  H  H43  1  0.43109000  0.93864000  0.47634000  1.0
  H  H44  1  0.17654000  0.05589000  0.81465000  1.0
  H  H45  1  0.26693000  0.05597000  0.68509000  1.0
  H  H46  1  0.82348000  0.94410000  0.18535000  1.0
  H  H47  1  0.73309000  0.94402000  0.31492000  1.0
  H  H48  1  0.99398000  0.41570000  0.32114000  1.0
  H  H49  1  0.08965000  0.41542000  0.17821000  1.0
  H  H50  1  0.00599000  0.58431000  0.67886000  1.0
  H  H51  1  0.91034000  0.58459000  0.82177000  1.0
  H  H52  1  0.79453000  0.44029000  0.39266000  1.0
  H  H53  1  0.26508000  0.43977000  0.10679000  1.0
  H  H54  1  0.20544000  0.55971000  0.60735000  1.0
  H  H55  1  0.73495000  0.56021000  0.89319000  1.0
  H  H56  1  0.78258000  0.51070000  0.31305000  1.0
  H  H57  1  0.20646000  0.51023000  0.18631000  1.0
  H  H58  1  0.21739000  0.48931000  0.68696000  1.0
  H  H59  1  0.79355000  0.48976000  0.81367000  1.0
  H  H60  1  0.07200000  0.94057000  0.29163000  1.0
  H  H61  1  0.48751000  0.94011000  0.20919000  1.0
  H  H62  1  0.92800000  0.05943000  0.70837000  1.0
  H  H63  1  0.51248000  0.05989000  0.79083000  1.0
  H  H64  1  0.00678000  0.99127000  0.37893000  1.0
  H  H65  1  0.50221000  0.99064000  0.12183000  1.0
  H  H66  1  0.99322000  0.00872000  0.62107000  1.0
  H  H67  1  0.49779000  0.00933000  0.87818000  1.0
  H  H68  1  0.18463000  0.02924000  0.31531000  1.0
  H  H69  1  0.28608000  0.02835000  0.18523000  1.0
  H  H70  1  0.81536000  0.97076000  0.68470000  1.0
  H  H71  1  0.71394000  0.97164000  0.81478000  1.0
  C  C72  1  0.14726000  0.22053000  0.10936000  1.0
  C  C73  1  0.13140000  0.22118000  0.39059000  1.0
  C  C74  1  0.85275000  0.77946000  0.89064000  1.0
  C  C75  1  0.86858000  0.77883000  0.60942000  1.0
  C  C76  1  0.29831000  0.21976000  0.05518000  1.0
  C  C77  1  0.98154000  0.22030000  0.44488000  1.0
  C  C78  1  0.70171000  0.78022000  0.94482000  1.0
  C  C79  1  0.01844000  0.77973000  0.55511000  1.0
  C  C80  1  0.25959000  0.23694000  0.98621000  1.0
  C  C81  1  0.00369000  0.23715000  0.51381000  1.0
  C  C82  1  0.74041000  0.76304000  0.01378000  1.0
  C  C83  1  0.99628000  0.76286000  0.48620000  1.0
  C  C84  1  0.06932000  0.25550000  0.97567000  1.0
  C  C85  1  0.17553000  0.25570000  0.52423000  1.0
  C  C86  1  0.93068000  0.74450000  0.02433000  1.0
  C  C87  1  0.82448000  0.74430000  0.47577000  1.0
  C  C88  1  0.92706000  0.25350000  0.03324000  1.0
  C  C89  1  0.31949000  0.25370000  0.46658000  1.0
  C  C90  1  0.07295000  0.74649000  0.96675000  1.0
  C  C91  1  0.68049000  0.74631000  0.53342000  1.0
  C  C92  1  0.41301000  0.23359000  0.92617000  1.0
  C  C93  1  0.85403000  0.23339000  0.57388000  1.0
  C  C94  1  0.58700000  0.76640000  0.07383000  1.0
  C  C95  1  0.14594000  0.76663000  0.42612000  1.0
  C  C96  1  0.73800000  0.20480000  0.87849000  1.0
  C  C97  1  0.55761000  0.20455000  0.62144000  1.0
  C  C98  1  0.26201000  0.79521000  0.12151000  1.0
  C  C99  1  0.44240000  0.79545000  0.37856000  1.0
  C  C100  1  0.74044000  0.28770000  0.83373000  1.0
  C  C101  1  0.47249000  0.28745000  0.66616000  1.0
  C  C102  1  0.25960000  0.71230000  0.16627000  1.0
  C  C103  1  0.52752000  0.71256000  0.33385000  1.0
  C  C104  1  0.90141000  0.28825000  0.78387000  1.0
  C  C105  1  0.31088000  0.28805000  0.71597000  1.0
  C  C106  1  0.09861000  0.71174000  0.21614000  1.0
  C  C107  1  0.68911000  0.71195000  0.28404000  1.0
  C  C108  1  0.89864000  0.12040000  0.87182000  1.0
  C  C109  1  0.48095000  0.12024000  0.62803000  1.0
  C  C110  1  0.10136000  0.87960000  0.12818000  1.0
  C  C111  1  0.51904000  0.87977000  0.37198000  1.0
  C  C112  1  0.90353000  0.03413000  0.92170000  1.0
  C  C113  1  0.56224000  0.03404000  0.57818000  1.0
  C  C114  1  0.09648000  0.96587000  0.07830000  1.0
  C  C115  1  0.43777000  0.96597000  0.42183000  1.0
  C  C116  1  0.05421000  0.12133000  0.81943000  1.0
  C  C117  1  0.32424000  0.12129000  0.68035000  1.0
  C  C118  1  0.94580000  0.87866000  0.18057000  1.0
  C  C119  1  0.67580000  0.87870000  0.31966000  1.0
  C  C120  1  0.06144000  0.20484000  0.77587000  1.0
  C  C121  1  0.23389000  0.20477000  0.72389000  1.0
  C  C122  1  0.93860000  0.79516000  0.22413000  1.0
  C  C123  1  0.76612000  0.79522000  0.27611000  1.0
  C  C124  1  0.75690000  0.36183000  0.30411000  1.0
  C  C125  1  0.38038000  0.36136000  0.19555000  1.0
  C  C126  1  0.24307000  0.63817000  0.69589000  1.0
  C  C127  1  0.61960000  0.63863000  0.80444000  1.0
  C  C128  1  0.83746000  0.43649000  0.33546000  1.0
  C  C129  1  0.22560000  0.43604000  0.16398000  1.0
  C  C130  1  0.16251000  0.56351000  0.66454000  1.0
  C  C131  1  0.77440000  0.56396000  0.83600000  1.0
  C  C132  1  0.89653000  0.09099000  0.29754000  1.0
  C  C133  1  0.51179000  0.09070000  0.20301000  1.0
  C  C134  1  0.10347000  0.90901000  0.70246000  1.0
  C  C135  1  0.48824000  0.90928000  0.79699000  1.0
  C  C136  1  0.04908000  0.00789000  0.32344000  1.0
  C  C137  1  0.44293000  0.00733000  0.17726000  1.0
  C  C138  1  0.95091000  0.99211000  0.67657000  1.0
  C  C139  1  0.55709000  0.99267000  0.82275000  1.0
  N  N140  1  0.96494000  0.23575000  0.09902000  1.0
  N  N141  1  0.29879000  0.23616000  0.40085000  1.0
  N  N142  1  0.03507000  0.76425000  0.90098000  1.0
  N  N143  1  0.70120000  0.76384000  0.59915000  1.0
  N  N144  1  0.58920000  0.20547000  0.93408000  1.0
  N  N145  1  0.70596000  0.20527000  0.56595000  1.0
  N  N146  1  0.41080000  0.79452000  0.06592000  1.0
  N  N147  1  0.29406000  0.79474000  0.43405000  1.0
  O  O148  1  0.62676000  0.33046000  0.34386000  1.0
  O  O149  1  0.54202000  0.32991000  0.15592000  1.0
  O  O150  1  0.37324000  0.66953000  0.65614000  1.0
  O  O151  1  0.45795000  0.67003000  0.84407000  1.0
  O  O152  1  0.94026000  0.12416000  0.23584000  1.0
  O  O153  1  0.43472000  0.12397000  0.26463000  1.0
  O  O154  1  0.05976000  0.87587000  0.76417000  1.0
  O  O155  1  0.56524000  0.87606000  0.73536000  1.0
  O  O156  1  0.73688000  0.12076000  0.33841000  1.0
  O  O157  1  0.64167000  0.12046000  0.16211000  1.0
  O  O158  1  0.26308000  0.87922000  0.66158000  1.0
  O  O159  1  0.35839000  0.87950000  0.83790000  1.0
  O  O160  1  0.82554000  0.33646000  0.24043000  1.0
  O  O161  1  0.33693000  0.33606000  0.25925000  1.0
  O  O162  1  0.17441000  0.66356000  0.75956000  1.0
  O  O163  1  0.66304000  0.66397000  0.74075000  1.0
