# generated using pymatgen
data_NdH5C7SO7
_symmetry_space_group_name_H-M   'P 1'
_cell_length_a   5.93167000
_cell_length_b   8.29310000
_cell_length_c   10.00520000
_cell_angle_alpha   111.33400000
_cell_angle_beta   95.78270000
_cell_angle_gamma   92.47640000
_symmetry_Int_Tables_number   1
_chemical_formula_structural   NdH5C7SO7
_chemical_formula_sum   'Nd2 H10 C14 S2 O14'
_cell_volume   454.41928126
_cell_formula_units_Z   2
loop_
 _symmetry_equiv_pos_site_id
 _symmetry_equiv_pos_as_xyz
  1  'x, y, z'
loop_
 _atom_site_type_symbol
 _atom_site_label
 _atom_site_symmetry_multiplicity
 _atom_site_fract_x
 _atom_site_fract_y
 _atom_site_fract_z
 _atom_site_occupancy
  Nd  Nd0  1  0.76262000  0.14995000  0.96990000  1.0
  Nd  Nd1  1  0.23738000  0.85005000  0.03010000  1.0
  H  H2  1  0.29942000  0.29613000  0.91757000  1.0
  H  H3  1  0.70058000  0.70387000  0.08243000  1.0
  H  H4  1  0.39803000  0.40730000  0.07777000  1.0
  H  H5  1  0.60197000  0.59270000  0.92223000  1.0
  H  H6  1  0.65363000  0.69043000  0.65672000  1.0
  H  H7  1  0.34636000  0.30957000  0.34327000  1.0
  H  H8  1  0.67326000  0.56156000  0.39103000  1.0
  H  H9  1  0.32673000  0.43844000  0.60897000  1.0
  H  H10  1  0.33906000  0.83119000  0.45721000  1.0
  H  H11  1  0.66094000  0.16881000  0.54279000  1.0
  C  C12  1  0.17922000  0.86804000  0.64880000  1.0
  C  C13  1  0.82078000  0.13195000  0.35120000  1.0
  C  C14  1  0.98235000  0.83273000  0.70763000  1.0
  C  C15  1  0.01765000  0.16727000  0.29237000  1.0
  C  C16  1  0.80086000  0.72235000  0.61161000  1.0
  C  C17  1  0.19914000  0.27765000  0.38839000  1.0
  C  C18  1  0.81236000  0.64986000  0.46385000  1.0
  C  C19  1  0.18764000  0.35014000  0.53615000  1.0
  C  C20  1  0.00630000  0.68942000  0.40878000  1.0
  C  C21  1  0.99370000  0.31058000  0.59122000  1.0
  C  C22  1  0.18773000  0.80044000  0.49993000  1.0
  C  C23  1  0.81227000  0.19956000  0.50007000  1.0
  C  C24  1  0.38871000  0.95934000  0.74398000  1.0
  C  C25  1  0.61130000  0.04066000  0.25602000  1.0
  S  S26  1  0.03859000  0.59100000  0.22470000  1.0
  S  S27  1  0.96141000  0.40900000  0.77530000  1.0
  O  O28  1  0.43518000  0.31534000  0.98889000  1.0
  O  O29  1  0.56482000  0.68466000  0.01111000  1.0
  O  O30  1  0.43659000  0.92582000  0.86084000  1.0
  O  O31  1  0.56340000  0.07418000  0.13916000  1.0
  O  O32  1  0.52512000  0.05986000  0.71591000  1.0
  O  O33  1  0.47488000  0.94014000  0.28409000  1.0
  O  O34  1  0.96810000  0.90372000  0.85040000  1.0
  O  O35  1  0.03189000  0.09627000  0.14960000  1.0
  O  O36  1  0.86741000  0.44052000  0.16191000  1.0
  O  O37  1  0.13260000  0.55948000  0.83809000  1.0
  O  O38  1  0.27455000  0.54935000  0.21638000  1.0
  O  O39  1  0.72545000  0.45065000  0.78362000  1.0
  O  O40  1  0.98735000  0.72120000  0.15566000  1.0
  O  O41  1  0.01265000  0.27880000  0.84434000  1.0
