# generated using pymatgen
data_ZnH11C18NO6
_symmetry_space_group_name_H-M   'P 1'
_cell_length_a   10.99970000
_cell_length_b   13.96010000
_cell_length_c   15.37800000
_cell_angle_alpha   89.75130000
_cell_angle_beta   91.63540000
_cell_angle_gamma   89.82120000
_symmetry_Int_Tables_number   1
_chemical_formula_structural   ZnH11C18NO6
_chemical_formula_sum   'Zn2 H22 C36 N2 O12'
_cell_volume   2360.40166002
_cell_formula_units_Z   2
loop_
 _symmetry_equiv_pos_site_id
 _symmetry_equiv_pos_as_xyz
  1  'x, y, z'
loop_
 _atom_site_type_symbol
 _atom_site_label
 _atom_site_symmetry_multiplicity
 _atom_site_fract_x
 _atom_site_fract_y
 _atom_site_fract_z
 _atom_site_occupancy
  Zn  Zn0  1  0.48721000  0.39837000  0.50333000  1.0
  Zn  Zn1  1  0.49031000  0.60292000  0.50234000  1.0
  H  H2  1  0.86477000  0.56447000  0.38984000  1.0
  H  H3  1  0.09142000  0.56108000  0.38114000  1.0
  H  H4  1  0.39382000  0.06743000  0.37972000  1.0
  H  H5  1  0.63481000  0.07082000  0.60877000  1.0
  H  H6  1  0.78145000  0.44611000  0.67653000  1.0
  H  H7  1  0.23266000  0.43250000  0.65537000  1.0
  H  H8  1  0.90862000  0.39281000  0.80167000  1.0
  H  H9  1  0.13530000  0.38490000  0.79095000  1.0
  H  H10  1  0.44538000  0.34707000  0.94454000  1.0
  H  H11  1  0.33730000  0.40502000  0.05879000  1.0
  H  H12  1  0.53969000  0.64205000  0.77841000  1.0
  H  H13  1  0.63345000  0.60414000  0.22614000  1.0
  H  H14  1  0.54098000  0.64728000  0.94051000  1.0
  H  H15  1  0.64325000  0.59743000  0.06484000  1.0
  H  H16  1  0.68815000  0.92802000  0.55017000  1.0
  H  H17  1  0.31464000  0.93867000  0.45537000  1.0
  H  H18  1  0.67109000  0.74946000  0.55228000  1.0
  H  H19  1  0.31341000  0.75937000  0.46198000  1.0
  H  H20  1  0.42810000  0.31824000  0.35549000  1.0
  H  H21  1  0.67799000  0.31998000  0.57962000  1.0
  H  H22  1  0.44245000  0.33888000  0.71554000  1.0
  H  H23  1  0.26738000  0.36123000  0.19122000  1.0
  C  C24  1  0.48991000  0.49419000  0.67445000  1.0
  C  C25  1  0.48690000  0.50693000  0.33094000  1.0
  C  C26  1  0.49145000  0.49389000  0.77054000  1.0
  C  C27  1  0.48563000  0.50502000  0.23379000  1.0
  C  C28  1  0.51986000  0.57816000  0.81638000  1.0
  C  C29  1  0.56965000  0.55986000  0.18866000  1.0
  C  C30  1  0.52136000  0.58063000  0.90640000  1.0
  C  C31  1  0.57409000  0.55696000  0.09839000  1.0
  C  C32  1  0.49288000  0.49747000  0.95422000  1.0
  C  C33  1  0.49136000  0.50014000  0.05022000  1.0
  C  C34  1  0.60264000  0.89399000  0.53098000  1.0
  C  C35  1  0.39608000  0.89972000  0.47687000  1.0
  C  C36  1  0.59430000  0.79483000  0.53234000  1.0
  C  C37  1  0.39427000  0.80035000  0.48050000  1.0
  C  C38  1  0.50228000  0.94901000  0.50215000  1.0
  C  C39  1  0.44600000  0.10397000  0.43061000  1.0
  C  C40  1  0.58253000  0.10551000  0.55643000  1.0
  C  C41  1  0.45629000  0.20369000  0.42633000  1.0
  C  C42  1  0.58891000  0.20507000  0.54794000  1.0
  C  C43  1  0.50897000  0.05459000  0.49723000  1.0
  C  C44  1  0.72781000  0.50519000  0.51495000  1.0
  C  C45  1  0.25385000  0.49823000  0.50157000  1.0
  C  C46  1  0.87989000  0.44256000  0.67085000  1.0
  C  C47  1  0.13400000  0.43574000  0.65954000  1.0
  C  C48  1  0.95131000  0.41301000  0.74115000  1.0
  C  C49  1  0.07929000  0.40892000  0.73534000  1.0
  C  C50  1  0.06340000  0.46768000  0.58619000  1.0
  C  C51  1  0.93310000  0.47002000  0.59138000  1.0
  C  C52  1  0.86349000  0.50400000  0.51773000  1.0
  C  C53  1  0.11812000  0.50026000  0.50849000  1.0
  C  C54  1  0.92036000  0.53745000  0.44445000  1.0
  C  C55  1  0.04781000  0.53550000  0.43962000  1.0
  C  C56  1  0.46463000  0.41314000  0.90954000  1.0
  C  C57  1  0.40538000  0.44664000  0.09521000  1.0
  C  C58  1  0.46360000  0.40985000  0.81842000  1.0
  C  C59  1  0.40261000  0.44834000  0.18583000  1.0
  N  N60  1  0.49199000  0.74867000  0.50725000  1.0
  N  N61  1  0.52137000  0.25384000  0.48704000  1.0
  O  O62  1  0.46647000  0.41321000  0.63626000  1.0
  O  O63  1  0.49643000  0.42593000  0.37089000  1.0
  O  O64  1  0.51083000  0.57151000  0.63412000  1.0
  O  O65  1  0.48282000  0.58763000  0.36750000  1.0
  O  O66  1  0.67112000  0.42690000  0.53063000  1.0
  O  O67  1  0.30357000  0.41677000  0.49258000  1.0
  O  O68  1  0.67579000  0.58315000  0.49361000  1.0
  O  O69  1  0.30761000  0.57885000  0.50557000  1.0
  O  O70  1  0.40065000  0.24986000  0.36042000  1.0
  O  O71  1  0.66378000  0.25322000  0.60162000  1.0
  O  O72  1  0.43569000  0.32588000  0.77967000  1.0
  O  O73  1  0.31756000  0.39891000  0.23135000  1.0
