# generated using pymatgen
data_FeH20PtC32(N4O)2
_symmetry_space_group_name_H-M   'P 1'
_cell_length_a   7.50769000
_cell_length_b   8.69898000
_cell_length_c   11.98730000
_cell_angle_alpha   105.92000000
_cell_angle_beta   100.28700000
_cell_angle_gamma   103.90400000
_symmetry_Int_Tables_number   1
_chemical_formula_structural   FeH20PtC32(N4O)2
_chemical_formula_sum   'Fe1 H20 Pt1 C32 N8 O2'
_cell_volume   705.28405160
_cell_formula_units_Z   1
loop_
 _symmetry_equiv_pos_site_id
 _symmetry_equiv_pos_as_xyz
  1  'x, y, z'
loop_
 _atom_site_type_symbol
 _atom_site_label
 _atom_site_symmetry_multiplicity
 _atom_site_fract_x
 _atom_site_fract_y
 _atom_site_fract_z
 _atom_site_occupancy
  Fe  Fe0  1  0.50000000  0.50000000  0.00000000  1.0
  H  H1  1  0.86765000  0.53038000  0.93142000  1.0
  H  H2  1  0.13235000  0.46962000  0.06858000  1.0
  H  H3  1  0.02885000  0.35157000  0.81753000  1.0
  H  H4  1  0.97115000  0.64843000  0.18246000  1.0
  H  H5  1  0.53158000  0.92785000  0.74788000  1.0
  H  H6  1  0.46842000  0.07215000  0.25213000  1.0
  H  H7  1  0.38862000  0.12457000  0.85916000  1.0
  H  H8  1  0.61138000  0.87543000  0.14084000  1.0
  H  H9  1  0.52989000  0.90039000  0.54052000  1.0
  H  H10  1  0.47012000  0.09961000  0.45948000  1.0
  H  H11  1  0.70907000  0.75259000  0.41556000  1.0
  H  H12  1  0.29092000  0.24739000  0.58443000  1.0
  H  H13  1  0.24676000  0.32180000  0.26146000  1.0
  H  H14  1  0.75323000  0.67820000  0.73853000  1.0
  H  H15  1  0.04488000  0.45031000  0.37614000  1.0
  H  H16  1  0.95511000  0.54969000  0.62386000  1.0
  H  H17  1  0.28333000  0.59642000  0.84905000  1.0
  H  H18  1  0.71667000  0.40359000  0.15095000  1.0
  H  H19  1  0.40042000  0.49546000  0.77599000  1.0
  H  H20  1  0.59957000  0.50454000  0.22401000  1.0
  Pt  Pt21  1  0.00000000  0.00001000  0.00000000  1.0
  C  C22  1  0.79689000  0.39662000  0.88909000  1.0
  C  C23  1  0.20311000  0.60338000  0.11091000  1.0
  C  C24  1  0.88655000  0.29628000  0.82471000  1.0
  C  C25  1  0.11345000  0.70372000  0.17529000  1.0
  C  C26  1  0.79390000  0.12256000  0.77015000  1.0
  C  C27  1  0.20610000  0.87744000  0.22985000  1.0
  C  C28  1  0.61091000  0.06099000  0.78473000  1.0
  C  C29  1  0.38909000  0.93901000  0.21527000  1.0
  C  C30  1  0.53003000  0.17134000  0.84870000  1.0
  C  C31  1  0.46997000  0.82867000  0.15131000  1.0
  C  C32  1  0.88572000  0.02050000  0.70471000  1.0
  C  C33  1  0.11428000  0.97949000  0.29529000  1.0
  C  C34  1  0.97535000  0.94156000  0.64842000  1.0
  C  C35  1  0.02464000  0.05843000  0.35159000  1.0
  C  C36  1  0.07356000  0.85425000  0.58761000  1.0
  C  C37  1  0.92644000  0.14575000  0.41239000  1.0
  C  C38  1  0.16233000  0.77336000  0.53212000  1.0
  C  C39  1  0.83768000  0.22664000  0.46789000  1.0
  C  C40  1  0.27058000  0.68829000  0.46873000  1.0
  C  C41  1  0.72942000  0.31170000  0.53127000  1.0
  C  C42  1  0.46232000  0.77198000  0.48005000  1.0
  C  C43  1  0.53768000  0.22802000  0.51995000  1.0
  C  C44  1  0.56215000  0.68928000  0.41083000  1.0
  C  C45  1  0.43784000  0.31072000  0.58917000  1.0
  C  C46  1  0.30528000  0.44929000  0.32534000  1.0
  C  C47  1  0.69472000  0.55071000  0.67466000  1.0
  C  C48  1  0.19241000  0.52110000  0.39002000  1.0
  C  C49  1  0.80759000  0.47890000  0.60998000  1.0
  C  C50  1  0.20352000  0.19684000  0.00765000  1.0
  C  C51  1  0.79647000  0.80318000  0.99235000  1.0
  C  C52  1  0.87555000  0.15047000  0.08957000  1.0
  C  C53  1  0.12446000  0.84954000  0.91043000  1.0
  N  N54  1  0.61972000  0.33865000  0.90197000  1.0
  N  N55  1  0.38028000  0.66136000  0.09804000  1.0
  N  N56  1  0.31868000  0.31444000  0.00674000  1.0
  N  N57  1  0.68133000  0.68557000  0.99326000  1.0
  N  N58  1  0.80267000  0.24090000  0.14220000  1.0
  N  N59  1  0.19733000  0.75911000  0.85780000  1.0
  N  N60  1  0.48599000  0.53138000  0.33347000  1.0
  N  N61  1  0.51401000  0.46861000  0.66652000  1.0
  O  O62  1  0.32210000  0.49088000  0.83671000  1.0
  O  O63  1  0.67791000  0.50913000  0.16329000  1.0
