# generated using pymatgen
data_Al2H10C22S2O11F2
_symmetry_space_group_name_H-M   'P 1'
_cell_length_a   6.62849000
_cell_length_b   12.33735971
_cell_length_c   14.63809869
_cell_angle_alpha   112.33721719
_cell_angle_beta   91.60568162
_cell_angle_gamma   100.89062561
_symmetry_Int_Tables_number   1
_chemical_formula_structural   Al2H10C22S2O11F2
_chemical_formula_sum   'Al2 H10 C22 S2 O11 F2'
_cell_volume   1080.72175942
_cell_formula_units_Z   1
loop_
 _symmetry_equiv_pos_site_id
 _symmetry_equiv_pos_as_xyz
  1  'x, y, z'
loop_
 _atom_site_type_symbol
 _atom_site_label
 _atom_site_symmetry_multiplicity
 _atom_site_fract_x
 _atom_site_fract_y
 _atom_site_fract_z
 _atom_site_occupancy
  Al  Al0  1  0.49632000  0.99407000  0.50325000  1.0
  Al  Al1  1  0.99823000  0.99873000  0.49953000  1.0
  H  H2  1  0.25751000  0.02509000  0.62939000  1.0
  H  H3  1  0.75550000  0.06967000  0.42118000  1.0
  H  H4  1  0.19291000  0.27536000  0.75519000  1.0
  H  H5  1  0.87624000  0.80804000  0.19999000  1.0
  H  H6  1  0.38621000  0.66172000  0.25439000  1.0
  H  H7  1  0.28866000  0.49293000  0.08922000  1.0
  H  H8  1  0.54870000  0.26143000  0.79538000  1.0
  H  H9  1  0.64522000  0.43351000  0.95761000  1.0
  H  H10  1  0.31103000  0.68840000  0.55267000  1.0
  H  H11  1  0.86792000  0.34357000  0.44433000  1.0
  C  C12  1  0.69167000  0.81310000  0.52408000  1.0
  C  C13  1  0.80648000  0.14920000  0.66909000  1.0
  C  C14  1  0.31237000  0.17864000  0.47426000  1.0
  C  C15  1  0.19231000  0.84589000  0.33727000  1.0
  C  C16  1  0.86323000  0.25500000  0.76560000  1.0
  C  C17  1  0.13843000  0.74554000  0.23759000  1.0
  C  C18  1  0.07174000  0.30880000  0.79944000  1.0
  C  C19  1  0.12151000  0.40714000  0.88904000  1.0
  C  C20  1  0.96869000  0.74001000  0.17572000  1.0
  C  C21  1  0.92173000  0.64740000  0.08265000  1.0
  C  C22  1  0.25479000  0.65673000  0.20551000  1.0
  C  C23  1  0.20055000  0.56309000  0.11279000  1.0
  C  C24  1  0.71066000  0.30232000  0.82267000  1.0
  C  C25  1  0.76551000  0.39938000  0.91343000  1.0
  C  C26  1  0.97365000  0.45493000  0.95008000  1.0
  C  C27  1  0.03243000  0.55557000  0.04787000  1.0
  C  C28  1  0.58345000  0.35239000  0.46638000  1.0
  C  C29  1  0.43189000  0.63784000  0.53138000  1.0
  C  C30  1  0.38665000  0.30040000  0.48047000  1.0
  C  C31  1  0.62590000  0.68912000  0.51670000  1.0
  C  C32  1  0.41698000  0.51587000  0.51355000  1.0
  C  C33  1  0.59962000  0.47593000  0.48513000  1.0
  S  S34  1  0.22617000  0.40305000  0.51933000  1.0
  S  S35  1  0.79077000  0.58948000  0.48044000  1.0
  O  O36  1  0.55753000  0.87771000  0.54864000  1.0
  O  O37  1  0.94884000  0.09381000  0.63341000  1.0
  O  O38  1  0.12436000  0.14958000  0.48995000  1.0
  O  O39  1  0.36891000  0.86257000  0.38285000  1.0
  O  O40  1  0.44102000  0.11009000  0.45441000  1.0
  O  O41  1  0.05751000  0.90851000  0.36954000  1.0
  O  O42  1  0.87370000  0.84613000  0.50504000  1.0
  O  O43  1  0.62018000  0.12180000  0.62966000  1.0
  O  O44  1  0.24581000  0.99029000  0.55745000  1.0
  O  O45  1  0.74638000  0.00860000  0.44855000  1.0
  O  O46  1  0.73346000  0.29002000  0.43762000  1.0
  F  F47  1  0.32606000  0.46086000  0.91761000  1.0
  F  F48  1  0.76136000  0.64777000  0.02223000  1.0
