# generated using pymatgen
data_Ag2H8C12N2O7
_symmetry_space_group_name_H-M   'P 1'
_cell_length_a   6.31655000
_cell_length_b   9.24652000
_cell_length_c   11.67920000
_cell_angle_alpha   90.27830000
_cell_angle_beta   99.04560000
_cell_angle_gamma   105.91800000
_symmetry_Int_Tables_number   1
_chemical_formula_structural   Ag2H8C12N2O7
_chemical_formula_sum   'Ag4 H16 C24 N4 O14'
_cell_volume   646.99494552
_cell_formula_units_Z   2
loop_
 _symmetry_equiv_pos_site_id
 _symmetry_equiv_pos_as_xyz
  1  'x, y, z'
loop_
 _atom_site_type_symbol
 _atom_site_label
 _atom_site_symmetry_multiplicity
 _atom_site_fract_x
 _atom_site_fract_y
 _atom_site_fract_z
 _atom_site_occupancy
  Ag  Ag0  1  0.78680000  0.71131000  0.19309000  1.0
  Ag  Ag1  1  0.21320000  0.28869000  0.80691000  1.0
  Ag  Ag2  1  0.91280000  0.49978000  0.38068000  1.0
  Ag  Ag3  1  0.08719000  0.50022000  0.61932000  1.0
  H  H4  1  0.10311000  0.39970000  0.99915000  1.0
  H  H5  1  0.89688000  0.60030000  0.00085000  1.0
  H  H6  1  0.75430000  0.18049000  0.95975000  1.0
  H  H7  1  0.24569000  0.81950000  0.04024000  1.0
  H  H8  1  0.72153000  0.96088000  0.08841000  1.0
  H  H9  1  0.27848000  0.03911000  0.91159000  1.0
  H  H10  1  0.77159000  0.97347000  0.36110000  1.0
  H  H11  1  0.22842000  0.02653000  0.63890000  1.0
  H  H12  1  0.87395000  0.13200000  0.55059000  1.0
  H  H13  1  0.12605000  0.86800000  0.44942000  1.0
  H  H14  1  0.63193000  0.29597000  0.58822000  1.0
  H  H15  1  0.36806000  0.70403000  0.41178000  1.0
  H  H16  1  0.26922000  0.79254000  0.22688000  1.0
  H  H17  1  0.73079000  0.20746000  0.77312000  1.0
  H  H18  1  0.25454000  0.62347000  0.19514000  1.0
  H  H19  1  0.74547000  0.37654000  0.80486000  1.0
  C  C20  1  0.46921000  0.41711000  0.16461000  1.0
  C  C21  1  0.53079000  0.58289000  0.83538000  1.0
  C  C22  1  0.25322000  0.29365000  0.14113000  1.0
  C  C23  1  0.74678000  0.70635000  0.85887000  1.0
  C  C24  1  0.08320000  0.30073000  0.05098000  1.0
  C  C25  1  0.91680000  0.69927000  0.94902000  1.0
  C  C26  1  0.88922000  0.18102000  0.03005000  1.0
  C  C27  1  0.11078000  0.81897000  0.96995000  1.0
  C  C28  1  0.86727000  0.05807000  0.09813000  1.0
  C  C29  1  0.13273000  0.94193000  0.90187000  1.0
  C  C30  1  0.22263000  0.17000000  0.21159000  1.0
  C  C31  1  0.77737000  0.83001000  0.78841000  1.0
  C  C32  1  0.38600000  0.15825000  0.31444000  1.0
  C  C33  1  0.61400000  0.84175000  0.68556000  1.0
  C  C34  1  0.68212000  0.05177000  0.38388000  1.0
  C  C35  1  0.31788000  0.94823000  0.61612000  1.0
  C  C36  1  0.73476000  0.14022000  0.48545000  1.0
  C  C37  1  0.26523000  0.85978000  0.51455000  1.0
  C  C38  1  0.60229000  0.23257000  0.50580000  1.0
  C  C39  1  0.39770000  0.76743000  0.49420000  1.0
  C  C40  1  0.42499000  0.24098000  0.42016000  1.0
  C  C41  1  0.57501000  0.75902000  0.57984000  1.0
  C  C42  1  0.27554000  0.33450000  0.44708000  1.0
  C  C43  1  0.72446000  0.66549000  0.55292000  1.0
  N  N44  1  0.03042000  0.05476000  0.18864000  1.0
  N  N45  1  0.96958000  0.94524000  0.81136000  1.0
  N  N46  1  0.50783000  0.05867000  0.30087000  1.0
  N  N47  1  0.49217000  0.94133000  0.69913000  1.0
  O  O48  1  0.45501000  0.55093000  0.14264000  1.0
  O  O49  1  0.54499000  0.44907000  0.85735000  1.0
  O  O50  1  0.64569000  0.38266000  0.20192000  1.0
  O  O51  1  0.35430000  0.61733000  0.79807000  1.0
  O  O52  1  0.00624000  0.94044000  0.25765000  1.0
  O  O53  1  0.99376000  0.05956000  0.74235000  1.0
  O  O54  1  0.45657000  0.97041000  0.20673000  1.0
  O  O55  1  0.54344000  0.02959000  0.79327000  1.0
  O  O56  1  0.15833000  0.37594000  0.36219000  1.0
  O  O57  1  0.84166000  0.62406000  0.63781000  1.0
  O  O58  1  0.28033000  0.36056000  0.55486000  1.0
  O  O59  1  0.71967000  0.63944000  0.44514000  1.0
  O  O60  1  0.17387000  0.68752000  0.22803000  1.0
  O  O61  1  0.82614000  0.31248000  0.77197000  1.0
