# generated using pymatgen
data_AgH3C4N2O
_symmetry_space_group_name_H-M   'P 1'
_cell_length_a   5.27072000
_cell_length_b   7.58436000
_cell_length_c   11.27420000
_cell_angle_alpha   82.09080000
_cell_angle_beta   89.99840000
_cell_angle_gamma   89.99940000
_symmetry_Int_Tables_number   1
_chemical_formula_structural   AgH3C4N2O
_chemical_formula_sum   'Ag4 H12 C16 N8 O4'
_cell_volume   446.39936288
_cell_formula_units_Z   4
loop_
 _symmetry_equiv_pos_site_id
 _symmetry_equiv_pos_as_xyz
  1  'x, y, z'
loop_
 _atom_site_type_symbol
 _atom_site_label
 _atom_site_symmetry_multiplicity
 _atom_site_fract_x
 _atom_site_fract_y
 _atom_site_fract_z
 _atom_site_occupancy
  Ag  Ag0  1  0.25822000  0.90144000  0.45091000  1.0
  Ag  Ag1  1  0.75818000  0.59855000  0.04909000  1.0
  Ag  Ag2  1  0.74179000  0.09856000  0.54909000  1.0
  Ag  Ag3  1  0.24180000  0.40145000  0.95091000  1.0
  H  H4  1  0.37940000  0.19276000  0.21738000  1.0
  H  H5  1  0.87938000  0.30725000  0.28262000  1.0
  H  H6  1  0.62059000  0.80725000  0.78262000  1.0
  H  H7  1  0.12061000  0.69276000  0.71737000  1.0
  H  H8  1  0.57483000  0.93731000  0.11512000  1.0
  H  H9  1  0.07482000  0.56268000  0.38489000  1.0
  H  H10  1  0.42516000  0.06267000  0.88488000  1.0
  H  H11  1  0.92520000  0.43734000  0.61512000  1.0
  H  H12  1  0.80435000  0.82352000  0.30500000  1.0
  H  H13  1  0.30433000  0.67647000  0.19501000  1.0
  H  H14  1  0.19564000  0.17647000  0.69501000  1.0
  H  H15  1  0.69567000  0.32353000  0.80500000  1.0
  C  C16  1  0.19544000  0.13971000  0.19698000  1.0
  C  C17  1  0.69545000  0.36029000  0.30301000  1.0
  C  C18  1  0.80452000  0.86027000  0.80302000  1.0
  C  C19  1  0.30456000  0.63971000  0.69698000  1.0
  C  C20  1  0.84621000  0.15170000  0.06572000  1.0
  C  C21  1  0.34620000  0.34829000  0.43429000  1.0
  C  C22  1  0.15378000  0.84829000  0.93428000  1.0
  C  C23  1  0.65383000  0.65172000  0.56572000  1.0
  C  C24  1  0.75054000  0.99843000  0.14038000  1.0
  C  C25  1  0.25053000  0.50158000  0.35963000  1.0
  C  C26  1  0.24946000  0.00156000  0.85962000  1.0
  C  C27  1  0.74949000  0.49844000  0.64038000  1.0
  C  C28  1  0.87795000  0.93397000  0.24283000  1.0
  C  C29  1  0.37794000  0.56601000  0.25718000  1.0
  C  C30  1  0.12204000  0.06602000  0.75717000  1.0
  C  C31  1  0.62206000  0.43400000  0.74282000  1.0
  N  N32  1  0.10098000  0.00696000  0.27547000  1.0
  N  N33  1  0.60096000  0.49304000  0.22454000  1.0
  N  N34  1  0.89902000  0.99303000  0.72453000  1.0
  N  N35  1  0.39903000  0.50697000  0.77546000  1.0
  N  N36  1  0.08437000  0.21303000  0.09574000  1.0
  N  N37  1  0.58435000  0.28697000  0.40427000  1.0
  N  N38  1  0.91564000  0.78696000  0.90425000  1.0
  N  N39  1  0.41567000  0.71304000  0.59573000  1.0
  O  O40  1  0.72931000  0.23256000  0.97701000  1.0
  O  O41  1  0.22931000  0.26745000  0.52301000  1.0
  O  O42  1  0.27067000  0.76742000  0.02298000  1.0
  O  O43  1  0.77071000  0.73256000  0.47700000  1.0
