# generated using pymatgen
data_AlH3C24(N2O5)6
_symmetry_space_group_name_H-M   'P 1'
_cell_length_a   4.44015000
_cell_length_b   28.76610000
_cell_length_c   28.76630000
_cell_angle_alpha   60.00068997
_cell_angle_beta   89.99870000
_cell_angle_gamma   89.99940000
_symmetry_Int_Tables_number   1
_chemical_formula_structural   AlH3C24(N2O5)6
_chemical_formula_sum   'Al2 H6 C48 N24 O60'
_cell_volume   3181.97149081
_cell_formula_units_Z   2
loop_
 _symmetry_equiv_pos_site_id
 _symmetry_equiv_pos_as_xyz
  1  'x, y, z'
loop_
 _atom_site_type_symbol
 _atom_site_label
 _atom_site_symmetry_multiplicity
 _atom_site_fract_x
 _atom_site_fract_y
 _atom_site_fract_z
 _atom_site_occupancy
  Al  Al0  1  0.93124000  0.00000000  0.50000000  1.0
  Al  Al1  1  0.93127000  0.66667000  0.16666000  1.0
  H  H2  1  0.47366000  0.33585000  0.27882000  1.0
  H  H3  1  0.47375000  0.33081000  0.38787000  1.0
  H  H4  1  0.47363000  0.77881000  0.38533000  1.0
  H  H5  1  0.47378000  0.88787000  0.28133000  1.0
  H  H6  1  0.47358000  0.88532000  0.83586000  1.0
  H  H7  1  0.47387000  0.78133000  0.83080000  1.0
  C  C8  1  0.43675000  0.94511000  0.57976000  1.0
  C  C9  1  0.43675000  0.07976000  0.47513000  1.0
  C  C10  1  0.43675000  0.97513000  0.44511000  1.0
  C  C11  1  0.43679000  0.58691000  0.19154000  1.0
  C  C12  1  0.43676000  0.69154000  0.22155000  1.0
  C  C13  1  0.43680000  0.72155000  0.08691000  1.0
  C  C14  1  0.46999000  0.52578000  0.22143000  1.0
  C  C15  1  0.52385000  0.49621000  0.27684000  1.0
  C  C16  1  0.55345000  0.44048000  0.30439000  1.0
  C  C17  1  0.49039000  0.40937000  0.28014000  1.0
  C  C18  1  0.44092000  0.43991000  0.22417000  1.0
  C  C19  1  0.45213000  0.49577000  0.19533000  1.0
  C  C20  1  0.48720000  0.35089000  0.30662000  1.0
  C  C21  1  0.48722000  0.31577000  0.36007000  1.0
  C  C22  1  0.44093000  0.22675000  0.44252000  1.0
  C  C23  1  0.49040000  0.25729000  0.38655000  1.0
  C  C24  1  0.55342000  0.22617000  0.36230000  1.0
  C  C25  1  0.52381000  0.17045000  0.38984000  1.0
  C  C26  1  0.46996000  0.14087000  0.44526000  1.0
  C  C27  1  0.45212000  0.17089000  0.47135000  1.0
  C  C28  1  0.46997000  0.72142000  0.25279000  1.0
  C  C29  1  0.52382000  0.77684000  0.22695000  1.0
  C  C30  1  0.55343000  0.80439000  0.25512000  1.0
  C  C31  1  0.49038000  0.78014000  0.31049000  1.0
  C  C32  1  0.44091000  0.72417000  0.33591000  1.0
  C  C33  1  0.45210000  0.69533000  0.30889000  1.0
  C  C34  1  0.48718000  0.80662000  0.34249000  1.0
  C  C35  1  0.48723000  0.86007000  0.32416000  1.0
  C  C36  1  0.44093000  0.94252000  0.33073000  1.0
  C  C37  1  0.49041000  0.88655000  0.35616000  1.0
  C  C38  1  0.55344000  0.86229000  0.41153000  1.0
  C  C39  1  0.52382000  0.88984000  0.43970000  1.0
  C  C40  1  0.46997000  0.94525000  0.41387000  1.0
  C  C41  1  0.45213000  0.97135000  0.35777000  1.0
  C  C42  1  0.47001000  0.75278000  0.02579000  1.0
  C  C43  1  0.52388000  0.72695000  0.99621000  1.0
  C  C44  1  0.55347000  0.75512000  0.94049000  1.0
  C  C45  1  0.49041000  0.81049000  0.90937000  1.0
  C  C46  1  0.44094000  0.83592000  0.93991000  1.0
  C  C47  1  0.45214000  0.80889000  0.99578000  1.0
  C  C48  1  0.48719000  0.84249000  0.85089000  1.0
  C  C49  1  0.48726000  0.82415000  0.81578000  1.0
  C  C50  1  0.44094000  0.83074000  0.72675000  1.0
  C  C51  1  0.49042000  0.85615000  0.75730000  1.0
  C  C52  1  0.55344000  0.91153000  0.72618000  1.0
  C  C53  1  0.52381000  0.93971000  0.67046000  1.0
  C  C54  1  0.46997000  0.91387000  0.64088000  1.0
  C  C55  1  0.45214000  0.85776000  0.67089000  1.0
  N  N56  1  0.46656000  0.52266000  0.13582000  1.0
  N  N57  1  0.38149000  0.41107000  0.19430000  1.0
  N  N58  1  0.56778000  0.52494000  0.30709000  1.0
  N  N59  1  0.66868000  0.41364000  0.36034000  1.0
  N  N60  1  0.66861000  0.25303000  0.30634000  1.0
  N  N61  1  0.56772000  0.14173000  0.35958000  1.0
  N  N62  1  0.38153000  0.25558000  0.47240000  1.0
  N  N63  1  0.46652000  0.14398000  0.53087000  1.0
  N  N64  1  0.46649000  0.63581000  0.34151000  1.0
  N  N65  1  0.38151000  0.69429000  0.39462000  1.0
  N  N66  1  0.56777000  0.80709000  0.16797000  1.0
  N  N67  1  0.66859000  0.86035000  0.22602000  1.0
  N  N68  1  0.66863000  0.80633000  0.44063000  1.0
  N  N69  1  0.56773000  0.85957000  0.49869000  1.0
  N  N70  1  0.38149000  0.97240000  0.27203000  1.0
  N  N71  1  0.46651000  0.03087000  0.32515000  1.0
  N  N72  1  0.46653000  0.84151000  0.02268000  1.0
  N  N73  1  0.38152000  0.89462000  0.91109000  1.0
  N  N74  1  0.56781000  0.66797000  0.02493000  1.0
  N  N75  1  0.66865000  0.72602000  0.91363000  1.0
  N  N76  1  0.66864000  0.94062000  0.75304000  1.0
  N  N77  1  0.56773000  0.99869000  0.64174000  1.0
  N  N78  1  0.38151000  0.77202000  0.75558000  1.0
  N  N79  1  0.46654000  0.82514000  0.64399000  1.0
  O  O80  1  0.66089000  0.00137000  0.44653000  1.0
  O  O81  1  0.66089000  0.94652000  0.55211000  1.0
  O  O82  1  0.66088000  0.05210000  0.50138000  1.0
  O  O83  1  0.18070000  0.97105000  0.46598000  1.0
  O  O84  1  0.18070000  0.06297000  0.47105000  1.0
  O  O85  1  0.18071000  0.96597000  0.56298000  1.0
  O  O86  1  0.66095000  0.72014000  0.11456000  1.0
  O  O87  1  0.66093000  0.61456000  0.16530000  1.0
  O  O88  1  0.66091000  0.66530000  0.22014000  1.0
  O  O89  1  0.18077000  0.70068000  0.10369000  1.0
  O  O90  1  0.18072000  0.69562000  0.20068000  1.0
  O  O91  1  0.18075000  0.60369000  0.19562000  1.0
  O  O92  1  0.70037000  0.54823000  0.11671000  1.0
  O  O93  1  0.25731000  0.51581000  0.11193000  1.0
  O  O94  1  0.14754000  0.38426000  0.20681000  1.0
  O  O95  1  0.57008000  0.41581000  0.16093000  1.0
  O  O96  1  0.37232000  0.55806000  0.30071000  1.0
  O  O97  1  0.79432000  0.51317000  0.33546000  1.0
  O  O98  1  0.92243000  0.39393000  0.36608000  1.0
  O  O99  1  0.50440000  0.41192000  0.39554000  1.0
  O  O100  1  0.92235000  0.27276000  0.30059000  1.0
  O  O101  1  0.50431000  0.25474000  0.27115000  1.0
  O  O102  1  0.37223000  0.10861000  0.36596000  1.0
  O  O103  1  0.79430000  0.15350000  0.33121000  1.0
  O  O104  1  0.14761000  0.28240000  0.45988000  1.0
  O  O105  1  0.57011000  0.25083000  0.50577000  1.0
  O  O106  1  0.70034000  0.11843000  0.54997000  1.0
  O  O107  1  0.25723000  0.15083000  0.55476000  1.0
  O  O108  1  0.70030000  0.61671000  0.33506000  1.0
  O  O109  1  0.25721000  0.61193000  0.37224000  1.0
  O  O110  1  0.14757000  0.70680000  0.40893000  1.0
  O  O111  1  0.57008000  0.66091000  0.42325000  1.0
  O  O112  1  0.37232000  0.80071000  0.14123000  1.0
  O  O113  1  0.79432000  0.83546000  0.15137000  1.0
  O  O114  1  0.92234000  0.86609000  0.23999000  1.0
  O  O115  1  0.50430000  0.89554000  0.19253000  1.0
  O  O116  1  0.92237000  0.80059000  0.42665000  1.0
  O  O117  1  0.50433000  0.77115000  0.47411000  1.0
  O  O118  1  0.37224000  0.86596000  0.52543000  1.0
  O  O119  1  0.79430000  0.83122000  0.51528000  1.0
  O  O120  1  0.14754000  0.95988000  0.25773000  1.0
  O  O121  1  0.57007000  0.00577000  0.24340000  1.0
  O  O122  1  0.70032000  0.04997000  0.33160000  1.0
  O  O123  1  0.25722000  0.05476000  0.29441000  1.0
  O  O124  1  0.70032000  0.83506000  0.04823000  1.0
  O  O125  1  0.25726000  0.87225000  0.01582000  1.0
  O  O126  1  0.14757000  0.90893000  0.88427000  1.0
  O  O127  1  0.57011000  0.92325000  0.91583000  1.0
  O  O128  1  0.37237000  0.64123000  0.05806000  1.0
  O  O129  1  0.79437000  0.65138000  0.01316000  1.0
  O  O130  1  0.92240000  0.73999000  0.89392000  1.0
  O  O131  1  0.50435000  0.69254000  0.91193000  1.0
  O  O132  1  0.92238000  0.92665000  0.77275000  1.0
  O  O133  1  0.50434000  0.97411000  0.75474000  1.0
  O  O134  1  0.37225000  0.02542000  0.60862000  1.0
  O  O135  1  0.79429000  0.01528000  0.65351000  1.0
  O  O136  1  0.14756000  0.75773000  0.78239000  1.0
  O  O137  1  0.57010000  0.74340000  0.75083000  1.0
  O  O138  1  0.70034000  0.83160000  0.61843000  1.0
  O  O139  1  0.25726000  0.79441000  0.65084000  1.0
