# generated using pymatgen
data_NaH6C8N3O2
_symmetry_space_group_name_H-M   'P 1'
_cell_length_a   3.68715000
_cell_length_b   14.43800000
_cell_length_c   16.00796837
_cell_angle_alpha   63.45850132
_cell_angle_beta   89.99971924
_cell_angle_gamma   89.99980000
_symmetry_Int_Tables_number   1
_chemical_formula_structural   NaH6C8N3O2
_chemical_formula_sum   'Na4 H24 C32 N12 O8'
_cell_volume   762.37434099
_cell_formula_units_Z   4
loop_
 _symmetry_equiv_pos_site_id
 _symmetry_equiv_pos_as_xyz
  1  'x, y, z'
loop_
 _atom_site_type_symbol
 _atom_site_label
 _atom_site_symmetry_multiplicity
 _atom_site_fract_x
 _atom_site_fract_y
 _atom_site_fract_z
 _atom_site_occupancy
  Na  Na0  1  0.73059000  0.64307000  0.76244000  1.0
  Na  Na1  1  0.23059000  0.85694000  0.73756000  1.0
  Na  Na2  1  0.26940000  0.35693000  0.23756000  1.0
  Na  Na3  1  0.76942000  0.14307000  0.26244000  1.0
  H  H4  1  0.15264000  0.01909000  0.43244000  1.0
  H  H5  1  0.65264000  0.48092000  0.06755000  1.0
  H  H6  1  0.84735000  0.98091000  0.56756000  1.0
  H  H7  1  0.34735000  0.51909000  0.93244000  1.0
  H  H8  1  0.71424000  0.90278000  0.26342000  1.0
  H  H9  1  0.21425000  0.59722000  0.23657000  1.0
  H  H10  1  0.28577000  0.09722000  0.73658000  1.0
  H  H11  1  0.78575000  0.40277000  0.76343000  1.0
  H  H12  1  0.94518000  0.80111000  0.25582000  1.0
  H  H13  1  0.44518000  0.69889000  0.24418000  1.0
  H  H14  1  0.05483000  0.19889000  0.74418000  1.0
  H  H15  1  0.55482000  0.30110000  0.75583000  1.0
  H  H16  1  0.89699000  0.62699000  0.37796000  1.0
  H  H17  1  0.39701000  0.87300000  0.12204000  1.0
  H  H18  1  0.10302000  0.37301000  0.62204000  1.0
  H  H19  1  0.60300000  0.12700000  0.87796000  1.0
  H  H20  1  0.75510000  0.51432000  0.54435000  1.0
  H  H21  1  0.25510000  0.98568000  0.95565000  1.0
  H  H22  1  0.24490000  0.48568000  0.45565000  1.0
  H  H23  1  0.74490000  0.01432000  0.04435000  1.0
  H  H24  1  0.44023000  0.58619000  0.64082000  1.0
  H  H25  1  0.94022000  0.91381000  0.85919000  1.0
  H  H26  1  0.55975000  0.41381000  0.35918000  1.0
  H  H27  1  0.05978000  0.08619000  0.14082000  1.0
  C  C28  1  0.26727000  0.78575000  0.58681000  1.0
  C  C29  1  0.76727000  0.71425000  0.91319000  1.0
  C  C30  1  0.73272000  0.21425000  0.41319000  1.0
  C  C31  1  0.23273000  0.28575000  0.08681000  1.0
  C  C32  1  0.41213000  0.91591000  0.39569000  1.0
  C  C33  1  0.91214000  0.58408000  0.10431000  1.0
  C  C34  1  0.58787000  0.08409000  0.60431000  1.0
  C  C35  1  0.08786000  0.41591000  0.89569000  1.0
  C  C36  1  0.50663000  0.80692000  0.43349000  1.0
  C  C37  1  0.00664000  0.69308000  0.06651000  1.0
  C  C38  1  0.49337000  0.19308000  0.56651000  1.0
  C  C39  1  0.99336000  0.30692000  0.93349000  1.0
  C  C40  1  0.67528000  0.76472000  0.37784000  1.0
  C  C41  1  0.17529000  0.73527000  0.12216000  1.0
  C  C42  1  0.32472000  0.23528000  0.62216000  1.0
  C  C43  1  0.82471000  0.26472000  0.87784000  1.0
  C  C44  1  0.76325000  0.65886000  0.42024000  1.0
  C  C45  1  0.26326000  0.84114000  0.07976000  1.0
  C  C46  1  0.23675000  0.34114000  0.57976000  1.0
  C  C47  1  0.73675000  0.15886000  0.92024000  1.0
  C  C48  1  0.68549000  0.59619000  0.51399000  1.0
  C  C49  1  0.18550000  0.90380000  0.98602000  1.0
  C  C50  1  0.31450000  0.40381000  0.48601000  1.0
  C  C51  1  0.81450000  0.09619000  0.01399000  1.0
  C  C52  1  0.51584000  0.63593000  0.56859000  1.0
  C  C53  1  0.01585000  0.86407000  0.93141000  1.0
  C  C54  1  0.48414000  0.36408000  0.43140000  1.0
  C  C55  1  0.98416000  0.13592000  0.06860000  1.0
  C  C56  1  0.43070000  0.74150000  0.52896000  1.0
  C  C57  1  0.93070000  0.75850000  0.97104000  1.0
  C  C58  1  0.56929000  0.25850000  0.47104000  1.0
  C  C59  1  0.06930000  0.24150000  0.02896000  1.0
  N  N60  1  0.16800000  0.88473000  0.54868000  1.0
  N  N61  1  0.66800000  0.61527000  0.95132000  1.0
  N  N62  1  0.83199000  0.11527000  0.45132000  1.0
  N  N63  1  0.33201000  0.38473000  0.04868000  1.0
  N  N64  1  0.24117000  0.94373000  0.45578000  1.0
  N  N65  1  0.74118000  0.55627000  0.04422000  1.0
  N  N66  1  0.75882000  0.05627000  0.54422000  1.0
  N  N67  1  0.25882000  0.44373000  0.95578000  1.0
  N  N68  1  0.74055000  0.82500000  0.28411000  1.0
  N  N69  1  0.24056000  0.67499000  0.21589000  1.0
  N  N70  1  0.25945000  0.17500000  0.71589000  1.0
  N  N71  1  0.75944000  0.32500000  0.78411000  1.0
  O  O72  1  0.22399000  0.73022000  0.67582000  1.0
  O  O73  1  0.72400000  0.76978000  0.82418000  1.0
  O  O74  1  0.77600000  0.26978000  0.32418000  1.0
  O  O75  1  0.27601000  0.23022000  0.17582000  1.0
  O  O76  1  0.47565000  0.98490000  0.31244000  1.0
  O  O77  1  0.97565000  0.51510000  0.18756000  1.0
  O  O78  1  0.52437000  0.01511000  0.68756000  1.0
  O  O79  1  0.02434000  0.48489000  0.81245000  1.0
