# generated using pymatgen
data_Cd2H7C6N13O
_symmetry_space_group_name_H-M   'P 1'
_cell_length_a   6.81758000
_cell_length_b   9.95078000
_cell_length_c   17.90440000
_cell_angle_alpha   101.86500000
_cell_angle_beta   90.00000000
_cell_angle_gamma   90.00000000
_symmetry_Int_Tables_number   1
_chemical_formula_structural   Cd2H7C6N13O
_chemical_formula_sum   'Cd8 H28 C24 N52 O4'
_cell_volume   1188.68772784
_cell_formula_units_Z   4
loop_
 _symmetry_equiv_pos_site_id
 _symmetry_equiv_pos_as_xyz
  1  'x, y, z'
loop_
 _atom_site_type_symbol
 _atom_site_label
 _atom_site_symmetry_multiplicity
 _atom_site_fract_x
 _atom_site_fract_y
 _atom_site_fract_z
 _atom_site_occupancy
  Cd  Cd0  1  0.70484000  0.02270000  0.94967000  1.0
  Cd  Cd1  1  0.20484000  0.47730000  0.55033000  1.0
  Cd  Cd2  1  0.29516000  0.97730000  0.05033000  1.0
  Cd  Cd3  1  0.79516000  0.52270000  0.44967000  1.0
  Cd  Cd4  1  0.57204000  0.34853000  0.08501000  1.0
  Cd  Cd5  1  0.07204000  0.15147000  0.41499000  1.0
  Cd  Cd6  1  0.42796000  0.65147000  0.91499000  1.0
  Cd  Cd7  1  0.92796000  0.84853000  0.58501000  1.0
  H  H8  1  0.19226000  0.53168000  0.16770000  1.0
  H  H9  1  0.69226000  0.96833000  0.33230000  1.0
  H  H10  1  0.80774000  0.46833000  0.83230000  1.0
  H  H11  1  0.30774000  0.03167000  0.66770000  1.0
  H  H12  1  0.04575000  0.59395000  0.10007000  1.0
  H  H13  1  0.54576000  0.90605000  0.39993000  1.0
  H  H14  1  0.95424000  0.40605000  0.89993000  1.0
  H  H15  1  0.45425000  0.09394000  0.60007000  1.0
  H  H16  1  0.98383000  0.48062000  0.28785000  1.0
  H  H17  1  0.48383000  0.01938000  0.21215000  1.0
  H  H18  1  0.01617000  0.51939000  0.71215000  1.0
  H  H19  1  0.51618000  0.98062000  0.78785000  1.0
  H  H20  1  0.94552000  0.33615000  0.21329000  1.0
  H  H21  1  0.44552000  0.16385000  0.28671000  1.0
  H  H22  1  0.05448000  0.66385000  0.78671000  1.0
  H  H23  1  0.55448000  0.83615000  0.71329000  1.0
  H  H24  1  0.91023000  0.73937000  0.21442000  1.0
  H  H25  1  0.41023000  0.76063000  0.28558000  1.0
  H  H26  1  0.08977000  0.26063000  0.78558000  1.0
  H  H27  1  0.58977000  0.23937000  0.71442000  1.0
  H  H28  1  0.72652000  0.66467000  0.26091000  1.0
  H  H29  1  0.22651000  0.83533000  0.23909000  1.0
  H  H30  1  0.27349000  0.33534000  0.73909000  1.0
  H  H31  1  0.77348000  0.16467000  0.76091000  1.0
  H  H32  1  0.32316000  0.91518000  0.89765000  1.0
  H  H33  1  0.82316000  0.58482000  0.60235000  1.0
  H  H34  1  0.67684000  0.08482000  0.10235000  1.0
  H  H35  1  0.17684000  0.41518000  0.39765000  1.0
  C  C36  1  0.06598000  0.37678000  0.08100000  1.0
  C  C37  1  0.56598000  0.12322000  0.41900000  1.0
  C  C38  1  0.93402000  0.62322000  0.91900000  1.0
  C  C39  1  0.43402000  0.87678000  0.58100000  1.0
  C  C40  1  0.05547000  0.51367000  0.13404000  1.0
  C  C41  1  0.55547000  0.98633000  0.36595000  1.0
  C  C42  1  0.94453000  0.48633000  0.86595000  1.0
  C  C43  1  0.44454000  0.01367000  0.63405000  1.0
  C  C44  1  0.68252000  0.42198000  0.26622000  1.0
  C  C45  1  0.18251000  0.07802000  0.23378000  1.0
  C  C46  1  0.31748000  0.57802000  0.73378000  1.0
  C  C47  1  0.81748000  0.92198000  0.76622000  1.0
  C  C48  1  0.88703000  0.43740000  0.23984000  1.0
  C  C49  1  0.38703000  0.06260000  0.26016000  1.0
  C  C50  1  0.11297000  0.56260000  0.76016000  1.0
  C  C51  1  0.61297000  0.93740000  0.73984000  1.0
  C  C52  1  0.65105000  0.68656000  0.14896000  1.0
  C  C53  1  0.15105000  0.81343000  0.35104000  1.0
  C  C54  1  0.34895000  0.31344000  0.85104000  1.0
  C  C55  1  0.84895000  0.18657000  0.64896000  1.0
  C  C56  1  0.79864000  0.65720000  0.20520000  1.0
  C  C57  1  0.29864000  0.84280000  0.29480000  1.0
  C  C58  1  0.20136000  0.34281000  0.79480000  1.0
  C  C59  1  0.70136000  0.15720000  0.70520000  1.0
  N  N60  1  0.90675000  0.30733000  0.05024000  1.0
  N  N61  1  0.40675000  0.19267000  0.44976000  1.0
  N  N62  1  0.09324000  0.69267000  0.94976000  1.0
  N  N63  1  0.59325000  0.80733000  0.55024000  1.0
  N  N64  1  0.97282000  0.18887000  0.00833000  1.0
  N  N65  1  0.47282000  0.31113000  0.49167000  1.0
  N  N66  1  0.02718000  0.81113000  0.99167000  1.0
  N  N67  1  0.52718000  0.68887000  0.50833000  1.0
  N  N68  1  0.16550000  0.18566000  0.01308000  1.0
  N  N69  1  0.66550000  0.31434000  0.48692000  1.0
  N  N70  1  0.83450000  0.81434000  0.98692000  1.0
  N  N71  1  0.33450000  0.68566000  0.51308000  1.0
  N  N72  1  0.22788000  0.30331000  0.05875000  1.0
  N  N73  1  0.72788000  0.19668000  0.44125000  1.0
  N  N74  1  0.77212000  0.69668000  0.94125000  1.0
  N  N75  1  0.27212000  0.80332000  0.55875000  1.0
  N  N76  1  0.88009000  0.52027000  0.18098000  1.0
  N  N77  1  0.38009000  0.97973000  0.31902000  1.0
  N  N78  1  0.11991000  0.47973000  0.81902000  1.0
  N  N79  1  0.61991000  0.02027000  0.68098000  1.0
  N  N80  1  0.53177000  0.38818000  0.21781000  1.0
  N  N81  1  0.03177000  0.11182000  0.28219000  1.0
  N  N82  1  0.46823000  0.61182000  0.78219000  1.0
  N  N83  1  0.96823000  0.88818000  0.71781000  1.0
  N  N84  1  0.36881000  0.39228000  0.26100000  1.0
  N  N85  1  0.86880000  0.10772000  0.23900000  1.0
  N  N86  1  0.63120000  0.60772000  0.73900000  1.0
  N  N87  1  0.13120000  0.89228000  0.76100000  1.0
  N  N88  1  0.41826000  0.42742000  0.33316000  1.0
  N  N89  1  0.91826000  0.07258000  0.16684000  1.0
  N  N90  1  0.58174000  0.57258000  0.66684000  1.0
  N  N91  1  0.08174000  0.92742000  0.83316000  1.0
  N  N92  1  0.61573000  0.44760000  0.33828000  1.0
  N  N93  1  0.11573000  0.05240000  0.16172000  1.0
  N  N94  1  0.38427000  0.55240000  0.66172000  1.0
  N  N95  1  0.88427000  0.94760000  0.83828000  1.0
  N  N96  1  0.56639000  0.59168000  0.09374000  1.0
  N  N97  1  0.06639000  0.90832000  0.40626000  1.0
  N  N98  1  0.43361000  0.40832000  0.90626000  1.0
  N  N99  1  0.93361000  0.09168000  0.59374000  1.0
  N  N100  1  0.44046000  0.66129000  0.05828000  1.0
  N  N101  1  0.94047000  0.83871000  0.44172000  1.0
  N  N102  1  0.55954000  0.33871000  0.94172000  1.0
  N  N103  1  0.05953000  0.16129000  0.55828000  1.0
  N  N104  1  0.44974000  0.79257000  0.09207000  1.0
  N  N105  1  0.94974000  0.70743000  0.40793000  1.0
  N  N106  1  0.55026000  0.20743000  0.90794000  1.0
  N  N107  1  0.05026000  0.29257000  0.59207000  1.0
  N  N108  1  0.58113000  0.81203000  0.14860000  1.0
  N  N109  1  0.08113000  0.68797000  0.35140000  1.0
  N  N110  1  0.41887000  0.18797000  0.85140000  1.0
  N  N111  1  0.91887000  0.31203000  0.64860000  1.0
  O  O112  1  0.42334000  0.89032000  0.93219000  1.0
  O  O113  1  0.92334000  0.60968000  0.56781000  1.0
  O  O114  1  0.57666000  0.10967000  0.06781000  1.0
  O  O115  1  0.07666000  0.39032000  0.43219000  1.0
