# generated using pymatgen
data_HgH16C26S2(N5O)2
_symmetry_space_group_name_H-M   'P 1'
_cell_length_a   5.66034000
_cell_length_b   7.25047000
_cell_length_c   16.13280000
_cell_angle_alpha   80.23000000
_cell_angle_beta   88.47430000
_cell_angle_gamma   77.91390000
_symmetry_Int_Tables_number   1
_chemical_formula_structural   HgH16C26S2(N5O)2
_chemical_formula_sum   'Hg1 H16 C26 S2 N10 O2'
_cell_volume   637.99944436
_cell_formula_units_Z   1
loop_
 _symmetry_equiv_pos_site_id
 _symmetry_equiv_pos_as_xyz
  1  'x, y, z'
loop_
 _atom_site_type_symbol
 _atom_site_label
 _atom_site_symmetry_multiplicity
 _atom_site_fract_x
 _atom_site_fract_y
 _atom_site_fract_z
 _atom_site_occupancy
  Hg  Hg0  1  0.00001000  0.00001000  0.00000000  1.0
  H  H1  1  0.50790000  0.71719000  0.95548000  1.0
  H  H2  1  0.49212000  0.28281000  0.04452000  1.0
  H  H3  1  0.71100000  0.55820000  0.84003000  1.0
  H  H4  1  0.28901000  0.44180000  0.15996000  1.0
  H  H5  1  0.48421000  0.58514000  0.70537000  1.0
  H  H6  1  0.51579000  0.41486000  0.29463000  1.0
  H  H7  1  0.87875000  0.93666000  0.81485000  1.0
  H  H8  1  0.12127000  0.06333000  0.18516000  1.0
  H  H9  1  0.07193000  0.65222000  0.23564000  1.0
  H  H10  1  0.92804000  0.34779000  0.76436000  1.0
  H  H11  1  0.66086000  0.81495000  0.27539000  1.0
  H  H12  1  0.33912000  0.18507000  0.72461000  1.0
  H  H13  1  0.59657000  0.88696000  0.42249000  1.0
  H  H14  1  0.40341000  0.11304000  0.57752000  1.0
  H  H15  1  0.34183000  0.60840000  0.47615000  1.0
  H  H16  1  0.65814000  0.39158000  0.52385000  1.0
  C  C17  1  0.41389000  0.72787000  0.89635000  1.0
  C  C18  1  0.58613000  0.27213000  0.10365000  1.0
  C  C19  1  0.52591000  0.63946000  0.83138000  1.0
  C  C20  1  0.47410000  0.36053000  0.16861000  1.0
  C  C21  1  0.39977000  0.65551000  0.75675000  1.0
  C  C22  1  0.60023000  0.34449000  0.24326000  1.0
  C  C23  1  0.16227000  0.76282000  0.74991000  1.0
  C  C24  1  0.83773000  0.23718000  0.25009000  1.0
  C  C25  1  0.06152000  0.84930000  0.81801000  1.0
  C  C26  1  0.93849000  0.15070000  0.18200000  1.0
  C  C27  1  0.01812000  0.79298000  0.67410000  1.0
  C  C28  1  0.98187000  0.20701000  0.32590000  1.0
  C  C29  1  0.93147000  0.78863000  0.54571000  1.0
  C  C30  1  0.06851000  0.21136000  0.45430000  1.0
  C  C31  1  0.03712000  0.67910000  0.29990000  1.0
  C  C32  1  0.96286000  0.32090000  0.70010000  1.0
  C  C33  1  0.80753000  0.77179000  0.32160000  1.0
  C  C34  1  0.19245000  0.22822000  0.67840000  1.0
  C  C35  1  0.77029000  0.80966000  0.40309000  1.0
  C  C36  1  0.22970000  0.19034000  0.59692000  1.0
  C  C37  1  0.96492000  0.75055000  0.46042000  1.0
  C  C38  1  0.03506000  0.24945000  0.53958000  1.0
  C  C39  1  0.18792000  0.65587000  0.43277000  1.0
  C  C40  1  0.81206000  0.34412000  0.56723000  1.0
  C  C41  1  0.57472000  0.79557000  0.09005000  1.0
  C  C42  1  0.42534000  0.20443000  0.90995000  1.0
  S  S43  1  0.85134000  0.68582000  0.07286000  1.0
  S  S44  1  0.14869000  0.31419000  0.92713000  1.0
  N  N45  1  0.18570000  0.83090000  0.88921000  1.0
  N  N46  1  0.81432000  0.16910000  0.11079000  1.0
  N  N47  1  0.79160000  0.88099000  0.66172000  1.0
  N  N48  1  0.20840000  0.11900000  0.33828000  1.0
  N  N49  1  0.73574000  0.87806000  0.57905000  1.0
  N  N50  1  0.26426000  0.12193000  0.42096000  1.0
  N  N51  1  0.22457000  0.62065000  0.35426000  1.0
  N  N52  1  0.77540000  0.37934000  0.64573000  1.0
  N  N53  1  0.37370000  0.87409000  0.10126000  1.0
  N  N54  1  0.62635000  0.12593000  0.89874000  1.0
  O  O55  1  0.11907000  0.73011000  0.60284000  1.0
  O  O56  1  0.88093000  0.26989000  0.39716000  1.0
