# generated using pymatgen
data_Zn2H21C44(N4O7)2
_symmetry_space_group_name_H-M   'P 1'
_cell_length_a   16.45790000
_cell_length_b   17.65730000
_cell_length_c   30.29840000
_cell_angle_alpha   89.31570000
_cell_angle_beta   86.18770000
_cell_angle_gamma   87.88710000
_symmetry_Int_Tables_number   1
_chemical_formula_structural   Zn2H21C44(N4O7)2
_chemical_formula_sum   'Zn4 H42 C88 N16 O28'
_cell_volume   8778.92419456
_cell_formula_units_Z   2
loop_
 _symmetry_equiv_pos_site_id
 _symmetry_equiv_pos_as_xyz
  1  'x, y, z'
loop_
 _atom_site_type_symbol
 _atom_site_label
 _atom_site_symmetry_multiplicity
 _atom_site_fract_x
 _atom_site_fract_y
 _atom_site_fract_z
 _atom_site_occupancy
  Zn  Zn0  1  0.41707000  0.50946000  0.50104000  1.0
  Zn  Zn1  1  0.58519000  0.49382000  0.49685000  1.0
  Zn  Zn2  1  0.09451000  0.49906000  0.97668000  1.0
  Zn  Zn3  1  0.90367000  0.50208000  0.02275000  1.0
  H  H4  1  0.70271000  0.58221000  0.53313000  1.0
  H  H5  1  0.85269000  0.58788000  0.54060000  1.0
  H  H6  1  0.88175000  0.38075000  0.46448000  1.0
  H  H7  1  0.11783000  0.56510000  0.56445000  1.0
  H  H8  1  0.30410000  0.43943000  0.45174000  1.0
  H  H9  1  0.15450000  0.41761000  0.45071000  1.0
  H  H10  1  0.38773000  0.73537000  0.49501000  1.0
  H  H11  1  0.37934000  0.87769000  0.49899000  1.0
  H  H12  1  0.64113000  0.87826000  0.50409000  1.0
  H  H13  1  0.36120000  0.12381000  0.49929000  1.0
  H  H14  1  0.61741000  0.26360000  0.50465000  1.0
  H  H15  1  0.62236000  0.12182000  0.50813000  1.0
  H  H16  1  0.35966000  0.50454000  0.64065000  1.0
  H  H17  1  0.35121000  0.49765000  0.72342000  1.0
  H  H18  1  0.25928000  0.46018000  0.97830000  1.0
  H  H19  1  0.38989000  0.45556000  0.93008000  1.0
  H  H20  1  0.82862000  0.49968000  0.84268000  1.0
  H  H21  1  0.69996000  0.49368000  0.80271000  1.0
  H  H22  1  0.68848000  0.48526000  0.96673000  1.0
  H  H23  1  0.56094000  0.48082000  0.92755000  1.0
  H  H24  1  0.12253000  0.51087000  0.87135000  1.0
  H  H25  1  0.24764000  0.50678000  0.81862000  1.0
  H  H26  1  0.62056000  0.48198000  0.63850000  1.0
  H  H27  1  0.61242000  0.47876000  0.72161000  1.0
  H  H28  1  0.63580000  0.50947000  0.35886000  1.0
  H  H29  1  0.64497000  0.50576000  0.27568000  1.0
  H  H30  1  0.73693000  0.51516000  0.02051000  1.0
  H  H31  1  0.60600000  0.51148000  0.06862000  1.0
  H  H32  1  0.17008000  0.47653000  0.15470000  1.0
  H  H33  1  0.29851000  0.47686000  0.19534000  1.0
  H  H34  1  0.30866000  0.52065000  0.03289000  1.0
  H  H35  1  0.43681000  0.51742000  0.07256000  1.0
  H  H36  1  0.87609000  0.50050000  0.12912000  1.0
  H  H37  1  0.75099000  0.49747000  0.18167000  1.0
  H  H38  1  0.37750000  0.48342000  0.36071000  1.0
  H  H39  1  0.38606000  0.48099000  0.27757000  1.0
  H  H40  1  0.07122000  0.73167000  0.93973000  1.0
  H  H41  1  0.07313000  0.87232000  0.93981000  1.0
  H  H42  1  0.93073000  0.87351000  0.06488000  1.0
  H  H43  1  0.08765000  0.12473000  0.94431000  1.0
  H  H44  1  0.91911000  0.26908000  0.05877000  1.0
  H  H45  1  0.92001000  0.12827000  0.06028000  1.0
  C  C46  1  0.51641000  0.64423000  0.49687000  1.0
  C  C47  1  0.49586000  0.49798000  0.58523000  1.0
  C  C48  1  0.48977000  0.35682000  0.49947000  1.0
  C  C49  1  0.50097000  0.50008000  0.41373000  1.0
  C  C50  1  0.00034000  0.63674000  0.99928000  1.0
  C  C51  1  0.84501000  0.49914000  0.93116000  1.0
  C  C52  1  0.99922000  0.36299000  0.00207000  1.0
  C  C53  1  0.15420000  0.49556000  0.06660000  1.0
  C  C54  1  0.74504000  0.53945000  0.51827000  1.0
  C  C55  1  0.82818000  0.54186000  0.52260000  1.0
  C  C56  1  0.87975000  0.48469000  0.50294000  1.0
  C  C57  1  0.84487000  0.42690000  0.47978000  1.0
  C  C58  1  0.76148000  0.43136000  0.47669000  1.0
  C  C59  1  0.96482000  0.48504000  0.50553000  1.0
  C  C60  1  0.03855000  0.48566000  0.50637000  1.0
  C  C61  1  0.12358000  0.49164000  0.50668000  1.0
  C  C62  1  0.15616000  0.53707000  0.53849000  1.0
  C  C63  1  0.23933000  0.54596000  0.53507000  1.0
  C  C64  1  0.25992000  0.46696000  0.47528000  1.0
  C  C65  1  0.17717000  0.45485000  0.47508000  1.0
  C  C66  1  0.51713000  0.72827000  0.49663000  1.0
  C  C67  1  0.44205000  0.76832000  0.49650000  1.0
  C  C68  1  0.43761000  0.84639000  0.49897000  1.0
  C  C69  1  0.50945000  0.88655000  0.50182000  1.0
  C  C70  1  0.58549000  0.84736000  0.50203000  1.0
  C  C71  1  0.58790000  0.76915000  0.49919000  1.0
  C  C72  1  0.50434000  0.96588000  0.50389000  1.0
  C  C73  1  0.49615000  0.03458000  0.50466000  1.0
  C  C74  1  0.49233000  0.11406000  0.50399000  1.0
  C  C75  1  0.41741000  0.15411000  0.50064000  1.0
  C  C76  1  0.41699000  0.23243000  0.49822000  1.0
  C  C77  1  0.48841000  0.27270000  0.49974000  1.0
  C  C78  1  0.56221000  0.23181000  0.50356000  1.0
  C  C79  1  0.56488000  0.15361000  0.50556000  1.0
  C  C80  1  0.49069000  0.49383000  0.63475000  1.0
  C  C81  1  0.76704000  0.49379000  0.90723000  1.0
  C  C82  1  0.41469000  0.49821000  0.65862000  1.0
  C  C83  1  0.40997000  0.49482000  0.70460000  1.0
  C  C84  1  0.25996000  0.46991000  0.94273000  1.0
  C  C85  1  0.33160000  0.46761000  0.91607000  1.0
  C  C86  1  0.76950000  0.49547000  0.86084000  1.0
  C  C87  1  0.69814000  0.49211000  0.83872000  1.0
  C  C88  1  0.69114000  0.48773000  0.93079000  1.0
  C  C89  1  0.61969000  0.48473000  0.90902000  1.0
  C  C90  1  0.18308000  0.49891000  0.88295000  1.0
  C  C91  1  0.25247000  0.49664000  0.85388000  1.0
  C  C92  1  0.56203000  0.48590000  0.65750000  1.0
  C  C93  1  0.55759000  0.48381000  0.70341000  1.0
  C  C94  1  0.48150000  0.48833000  0.72745000  1.0
  C  C95  1  0.47815000  0.48692000  0.77627000  1.0
  C  C96  1  0.32895000  0.48241000  0.87072000  1.0
  C  C97  1  0.40701000  0.48379000  0.84288000  1.0
  C  C98  1  0.62214000  0.48711000  0.86258000  1.0
  C  C99  1  0.54564000  0.48523000  0.83982000  1.0
  C  C100  1  0.50612000  0.49723000  0.36432000  1.0
  C  C101  1  0.23146000  0.49749000  0.09125000  1.0
  C  C102  1  0.58173000  0.50320000  0.34055000  1.0
  C  C103  1  0.58672000  0.50099000  0.29460000  1.0
  C  C104  1  0.73637000  0.51117000  0.05639000  1.0
  C  C105  1  0.66488000  0.50921000  0.08297000  1.0
  C  C106  1  0.22898000  0.48564000  0.13719000  1.0
  C  C107  1  0.30019000  0.48559000  0.15963000  1.0
  C  C108  1  0.30691000  0.50971000  0.06836000  1.0
  C  C109  1  0.37827000  0.50853000  0.09043000  1.0
  C  C110  1  0.81501000  0.50272000  0.11708000  1.0
  C  C111  1  0.74556000  0.50104000  0.14608000  1.0
  C  C112  1  0.43558000  0.48847000  0.34168000  1.0
  C  C113  1  0.44027000  0.48684000  0.29580000  1.0
  C  C114  1  0.51584000  0.49334000  0.27183000  1.0
  C  C115  1  0.51929000  0.49389000  0.22306000  1.0
  C  C116  1  0.66848000  0.50356000  0.12886000  1.0
  C  C117  1  0.59058000  0.50020000  0.15664000  1.0
  C  C118  1  0.37587000  0.49645000  0.13643000  1.0
  C  C119  1  0.45214000  0.49611000  0.15944000  1.0
  C  C120  1  0.00113000  0.72201000  0.00148000  1.0
  C  C121  1  0.04088000  0.76348000  0.96708000  1.0
  C  C122  1  0.04177000  0.84224000  0.96713000  1.0
  C  C123  1  0.00210000  0.88432000  0.00227000  1.0
  C  C124  1  0.96188000  0.84348000  0.03708000  1.0
  C  C125  1  0.96239000  0.76470000  0.03621000  1.0
  C  C126  1  0.00263000  0.96504000  0.00258000  1.0
  C  C127  1  0.00343000  0.03442000  0.00239000  1.0
  C  C128  1  0.00349000  0.11516000  0.00233000  1.0
  C  C129  1  0.05036000  0.15536000  0.96976000  1.0
  C  C130  1  0.04880000  0.23418000  0.96992000  1.0
  C  C131  1  0.00175000  0.27754000  0.00148000  1.0
  C  C132  1  0.95580000  0.23669000  0.03383000  1.0
  C  C133  1  0.95638000  0.15788000  0.03463000  1.0
  N  N134  1  0.71166000  0.48517000  0.49496000  1.0
  N  N135  1  0.29071000  0.51365000  0.50442000  1.0
  N  N136  1  0.18671000  0.48705000  0.92685000  1.0
  N  N137  1  0.40432000  0.48657000  0.79876000  1.0
  N  N138  1  0.47496000  0.48278000  0.86498000  1.0
  N  N139  1  0.54962000  0.48655000  0.79538000  1.0
  N  N140  1  0.81072000  0.50708000  0.07280000  1.0
  N  N141  1  0.59309000  0.49726000  0.20073000  1.0
  N  N142  1  0.52277000  0.50047000  0.13447000  1.0
  N  N143  1  0.44803000  0.49217000  0.20384000  1.0
  N  N144  1  0.72614000  0.37241000  0.44973000  1.0
  N  N145  1  0.27250000  0.59845000  0.56696000  1.0
  N  N146  1  0.66963000  0.73088000  0.49775000  1.0
  N  N147  1  0.33736000  0.27116000  0.49156000  1.0
  N  N148  1  0.92140000  0.72763000  0.07547000  1.0
  N  N149  1  0.09892000  0.27034000  0.93347000  1.0
  O  O150  1  0.45073000  0.61589000  0.48648000  1.0
  O  O151  1  0.57999000  0.60808000  0.50833000  1.0
  O  O152  1  0.56389000  0.47974000  0.56489000  1.0
  O  O153  1  0.43124000  0.51987000  0.56693000  1.0
  O  O154  1  0.55877000  0.38449000  0.48902000  1.0
  O  O155  1  0.42372000  0.39313000  0.51037000  1.0
  O  O156  1  0.43224000  0.48738000  0.43407000  1.0
  O  O157  1  0.56581000  0.51509000  0.43204000  1.0
  O  O158  1  0.04920000  0.60447000  0.97041000  1.0
  O  O159  1  0.95045000  0.60345000  0.02627000  1.0
  O  O160  1  0.83169000  0.49994000  0.97419000  1.0
  O  O161  1  0.91227000  0.50258000  0.91043000  1.0
  O  O162  1  0.94513000  0.39533000  0.02806000  1.0
  O  O163  1  0.05135000  0.39607000  0.97640000  1.0
  O  O164  1  0.16708000  0.50962000  0.02428000  1.0
  O  O165  1  0.08779000  0.48099000  0.08598000  1.0
  O  O166  1  0.69219000  0.39416000  0.41673000  1.0
  O  O167  1  0.73798000  0.30610000  0.46222000  1.0
  O  O168  1  0.31514000  0.64928000  0.55134000  1.0
  O  O169  1  0.25063000  0.58809000  0.60633000  1.0
  O  O170  1  0.69784000  0.70666000  0.46165000  1.0
  O  O171  1  0.70530000  0.72905000  0.53256000  1.0
  O  O172  1  0.32801000  0.29887000  0.45442000  1.0
  O  O173  1  0.28467000  0.26940000  0.52255000  1.0
  O  O174  1  0.96585000  0.70124000  0.10352000  1.0
  O  O175  1  0.84608000  0.72931000  0.07784000  1.0
  O  O176  1  0.17257000  0.27435000  0.93847000  1.0
  O  O177  1  0.06367000  0.29011000  0.90031000  1.0
