# generated using pymatgen
data_LuH9C9NO8
_symmetry_space_group_name_H-M   'P 1'
_cell_length_a   5.28438000
_cell_length_b   8.38005000
_cell_length_c   15.78358956
_cell_angle_alpha   74.84446540
_cell_angle_beta   84.49133632
_cell_angle_gamma   86.39290000
_symmetry_Int_Tables_number   1
_chemical_formula_structural   LuH9C9NO8
_chemical_formula_sum   'Lu2 H18 C18 N2 O16'
_cell_volume   671.00469019
_cell_formula_units_Z   2
loop_
 _symmetry_equiv_pos_site_id
 _symmetry_equiv_pos_as_xyz
  1  'x, y, z'
loop_
 _atom_site_type_symbol
 _atom_site_label
 _atom_site_symmetry_multiplicity
 _atom_site_fract_x
 _atom_site_fract_y
 _atom_site_fract_z
 _atom_site_occupancy
  Lu  Lu0  1  0.96877000  0.87086000  0.75929000  1.0
  Lu  Lu1  1  0.03123000  0.12912000  0.24071000  1.0
  H  H2  1  0.24517000  0.93544000  0.98191000  1.0
  H  H3  1  0.75485000  0.06455000  0.01809000  1.0
  H  H4  1  0.08400000  0.58197000  0.21599000  1.0
  H  H5  1  0.91601000  0.41804000  0.78400000  1.0
  H  H6  1  0.78605000  0.52798000  0.06057000  1.0
  H  H7  1  0.21396000  0.47199000  0.93944000  1.0
  H  H8  1  0.63469000  0.85043000  0.56039000  1.0
  H  H9  1  0.36529000  0.14963000  0.43959000  1.0
  H  H10  1  0.40158000  0.83694000  0.48907000  1.0
  H  H11  1  0.59840000  0.16314000  0.51091000  1.0
  H  H12  1  0.82150000  0.16258000  0.63135000  1.0
  H  H13  1  0.17852000  0.83741000  0.36866000  1.0
  H  H14  1  0.55914000  0.07035000  0.66877000  1.0
  H  H15  1  0.44086000  0.92965000  0.33123000  1.0
  H  H16  1  0.05537000  0.11086000  0.85894000  1.0
  H  H17  1  0.94464000  0.88912000  0.14106000  1.0
  H  H18  1  0.32909000  0.00677000  0.84257000  1.0
  H  H19  1  0.67092000  0.99320000  0.15744000  1.0
  C  C20  1  0.69380000  0.79588000  0.92433000  1.0
  C  C21  1  0.30622000  0.20409000  0.07568000  1.0
  C  C22  1  0.53516000  0.73907000  0.00939000  1.0
  C  C23  1  0.46484000  0.26092000  0.99062000  1.0
  C  C24  1  0.30660000  0.82166000  0.02779000  1.0
  C  C25  1  0.69343000  0.17833000  0.97221000  1.0
  C  C26  1  0.21715000  0.62614000  0.15847000  1.0
  C  C27  1  0.78284000  0.37385000  0.84154000  1.0
  C  C28  1  0.44521000  0.53714000  0.14708000  1.0
  C  C29  1  0.55479000  0.46286000  0.85292000  1.0
  C  C30  1  0.60837000  0.59577000  0.07183000  1.0
  C  C31  1  0.39163000  0.40421000  0.92818000  1.0
  C  C32  1  0.50502000  0.37660000  0.21176000  1.0
  C  C33  1  0.49498000  0.62339000  0.78824000  1.0
  C  C34  1  0.26220000  0.92033000  0.60149000  1.0
  C  C35  1  0.73778000  0.07971000  0.39850000  1.0
  C  C36  1  0.46571000  0.91383000  0.52867000  1.0
  C  C37  1  0.53426000  0.08624000  0.47131000  1.0
  N  N38  1  0.15199000  0.76757000  0.10096000  1.0
  N  N39  1  0.84802000  0.23242000  0.89904000  1.0
  O  O40  1  0.61943000  0.92063000  0.86374000  1.0
  O  O41  1  0.38058000  0.07935000  0.13626000  1.0
  O  O42  1  0.89981000  0.71701000  0.91080000  1.0
  O  O43  1  0.10021000  0.28297000  0.08920000  1.0
  O  O44  1  0.31984000  0.29526000  0.25614000  1.0
  O  O45  1  0.68015000  0.70473000  0.74387000  1.0
  O  O46  1  0.73656000  0.33010000  0.21683000  1.0
  O  O47  1  0.26344000  0.66987000  0.78317000  1.0
  O  O48  1  0.28916000  0.01291000  0.65402000  1.0
  O  O49  1  0.71083000  0.98711000  0.34598000  1.0
  O  O50  1  0.06833000  0.83305000  0.61473000  1.0
  O  O51  1  0.93166000  0.16698000  0.38526000  1.0
  O  O52  1  0.73454000  0.09362000  0.68392000  1.0
  O  O53  1  0.26547000  0.90637000  0.31608000  1.0
  O  O54  1  0.15212000  0.03476000  0.82497000  1.0
  O  O55  1  0.84788000  0.96521000  0.17504000  1.0
