# generated using pymatgen
data_Zn3H32C36N4O13
_symmetry_space_group_name_H-M   'P 1'
_cell_length_a   21.28420000
_cell_length_b   21.28470000
_cell_length_c   24.33946039
_cell_angle_alpha   64.39680975
_cell_angle_beta   64.07324336
_cell_angle_gamma   90.34680000
_symmetry_Int_Tables_number   1
_chemical_formula_structural   Zn3H32C36N4O13
_chemical_formula_sum   'Zn6 H64 C72 N8 O26'
_cell_volume   8680.63897440
_cell_formula_units_Z   2
loop_
 _symmetry_equiv_pos_site_id
 _symmetry_equiv_pos_as_xyz
  1  'x, y, z'
loop_
 _atom_site_type_symbol
 _atom_site_label
 _atom_site_symmetry_multiplicity
 _atom_site_fract_x
 _atom_site_fract_y
 _atom_site_fract_z
 _atom_site_occupancy
  Zn  Zn0  1  0.00069000  0.93369000  0.50102000  1.0
  Zn  Zn1  1  0.53644000  0.03468000  0.42996000  1.0
  Zn  Zn2  1  0.46458000  0.96636000  0.57010000  1.0
  Zn  Zn3  1  0.43471000  0.50175000  0.49895000  1.0
  Zn  Zn4  1  0.00229000  0.06309000  0.49489000  1.0
  Zn  Zn5  1  0.55799000  0.49721000  0.50505000  1.0
  H  H6  1  0.15694000  0.16922000  0.28312000  1.0
  H  H7  1  0.60737000  0.70429000  0.51780000  1.0
  H  H8  1  0.62902000  0.26045000  0.37790000  1.0
  H  H9  1  0.06863000  0.98976000  0.27955000  1.0
  H  H10  1  0.26932000  0.34816000  0.72046000  1.0
  H  H11  1  0.14011000  0.89798000  0.57681000  1.0
  H  H12  1  0.47439000  0.71686000  0.42352000  1.0
  H  H13  1  0.13275000  0.93939000  0.62798000  1.0
  H  H14  1  0.22242000  0.12531000  0.48163000  1.0
  H  H15  1  0.56694000  0.76082000  0.37203000  1.0
  H  H16  1  0.23863000  0.90474000  0.62413000  1.0
  H  H17  1  0.52834000  0.86272000  0.37613000  1.0
  H  H18  1  0.25774000  0.88864000  0.55364000  1.0
  H  H19  1  0.44191000  0.81119000  0.44693000  1.0
  H  H20  1  0.22373000  0.97170000  0.44572000  1.0
  H  H21  1  0.41754000  0.66936000  0.55462000  1.0
  H  H22  1  0.89461000  0.99526000  0.65964000  1.0
  H  H23  1  0.65492000  0.55421000  0.34031000  1.0
  H  H24  1  0.16163000  0.07604000  0.57189000  1.0
  H  H25  1  0.64799000  0.73370000  0.42758000  1.0
  H  H26  1  0.25266000  0.03535000  0.59844000  1.0
  H  H27  1  0.63373000  0.85125000  0.40110000  1.0
  H  H28  1  0.45234000  0.44012000  0.71685000  1.0
  H  H29  1  0.31274000  0.10491000  0.51348000  1.0
  H  H30  1  0.61889000  0.82648000  0.48587000  1.0
  H  H31  1  0.24182000  0.06639000  0.40362000  1.0
  H  H32  1  0.47051000  0.64544000  0.59632000  1.0
  H  H33  1  0.34591000  0.07808000  0.41299000  1.0
  H  H34  1  0.49171000  0.75892000  0.58688000  1.0
  H  H35  1  0.79270000  0.90605000  0.84331000  1.0
  H  H36  1  0.74940000  0.63593000  0.15665000  1.0
  H  H37  1  0.84583000  0.70695000  0.85435000  1.0
  H  H38  1  0.56137000  0.70020000  0.14558000  1.0
  H  H39  1  0.21852000  0.23842000  0.15284000  1.0
  H  H40  1  0.39128000  0.37139000  0.84713000  1.0
  H  H41  1  0.91007000  0.76652000  0.72361000  1.0
  H  H42  1  0.49019000  0.63372000  0.27632000  1.0
  H  H43  1  0.78076000  0.89773000  0.54634000  1.0
  H  H44  1  0.34199000  0.98936000  0.42747000  1.0
  H  H45  1  0.44388000  0.32703000  0.45387000  1.0
  H  H46  1  0.82894000  0.95016000  0.45489000  1.0
  H  H47  1  0.40495000  0.28374000  0.54531000  1.0
  H  H48  1  0.72386000  0.96869000  0.44645000  1.0
  H  H49  1  0.41504000  0.17024000  0.55369000  1.0
  H  H50  1  0.41718000  0.76936000  0.57284000  1.0
  H  H51  1  0.67919000  0.89451000  0.53166000  1.0
  H  H52  1  0.42601000  0.21081000  0.46852000  1.0
  H  H53  1  0.75956000  0.95539000  0.62376000  1.0
  H  H54  1  0.57891000  0.38330000  0.37631000  1.0
  H  H55  1  0.64885000  0.92105000  0.63297000  1.0
  H  H56  1  0.55386000  0.28179000  0.36711000  1.0
  H  H57  1  0.82398000  0.12768000  0.45489000  1.0
  H  H58  1  0.58261000  0.27888000  0.54505000  1.0
  H  H59  1  0.83283000  0.08573000  0.40386000  1.0
  H  H60  1  0.48963000  0.23667000  0.59618000  1.0
  H  H61  1  0.71516000  0.09568000  0.42765000  1.0
  H  H62  1  0.52331000  0.14280000  0.57238000  1.0
  H  H63  1  0.12494000  0.06112000  0.14950000  1.0
  H  H64  1  0.21064000  0.27439000  0.85051000  1.0
  H  H65  1  0.69913000  0.11153000  0.49776000  1.0
  H  H66  1  0.60925000  0.19689000  0.50221000  1.0
  H  H67  1  0.75951000  0.04739000  0.58758000  1.0
  H  H68  1  0.63487000  0.34718000  0.41235000  1.0
  H  H69  1  0.63830000  0.00699000  0.62214000  1.0
  C  C70  1  0.11218000  0.01947000  0.51056000  1.0
  C  C71  1  0.20754000  0.19718000  0.06698000  1.0
  C  C72  1  0.52185000  0.31631000  0.48981000  1.0
  C  C73  1  0.67586000  0.99886000  0.52747000  1.0
  C  C74  1  0.52622000  0.20331000  0.47260000  1.0
  C  C75  1  0.67319000  0.97876000  0.59723000  1.0
  C  C76  1  0.57585000  0.27040000  0.40283000  1.0
  C  C77  1  0.72100000  0.07700000  0.47442000  1.0
  C  C78  1  0.26421000  0.27448000  0.93301000  1.0
  C  C79  1  0.55139000  0.19540000  0.52560000  1.0
  C  C80  1  0.51628000  0.89346000  0.47595000  1.0
  C  C81  1  0.36938000  0.99212000  0.52408000  1.0
  C  C82  1  0.52224000  0.13396000  0.46918000  1.0
  C  C83  1  0.60308000  0.99149000  0.53089000  1.0
  C  C84  1  0.92997000  0.90483000  0.63351000  1.0
  C  C85  1  0.53836000  0.56349000  0.36644000  1.0
  C  C86  1  0.15142000  0.14557000  0.25325000  1.0
  C  C87  1  0.39884000  0.40470000  0.74672000  1.0
  C  C88  1  0.18510000  0.18425000  0.18097000  1.0
  C  C89  1  0.16802000  0.94016000  0.57836000  1.0
  C  C90  1  0.36524000  0.36609000  0.81900000  1.0
  C  C91  1  0.17491000  0.15425000  0.14321000  1.0
  C  C92  1  0.29749000  0.31812000  0.85677000  1.0
  C  C93  1  0.13264000  0.08396000  0.17908000  1.0
  C  C94  1  0.26305000  0.31169000  0.82093000  1.0
  C  C95  1  0.51823000  0.74638000  0.42178000  1.0
  C  C96  1  0.10101000  0.04442000  0.25145000  1.0
  C  C97  1  0.29588000  0.35244000  0.74855000  1.0
  C  C98  1  0.24148000  0.92730000  0.57292000  1.0
  C  C99  1  0.49992000  0.81433000  0.42734000  1.0
  C  C100  1  0.53003000  0.62280000  0.48934000  1.0
  C  C101  1  0.23913000  0.01903000  0.44866000  1.0
  C  C102  1  0.46795000  0.68776000  0.55142000  1.0
  C  C103  1  0.20592000  0.07290000  0.52828000  1.0
  C  C104  1  0.60137000  0.73437000  0.47130000  1.0
  C  C105  1  0.17964000  0.01411000  0.51739000  1.0
  C  C106  1  0.53153000  0.69709000  0.48252000  1.0
  C  C107  1  0.29924000  0.99880000  0.52190000  1.0
  C  C108  1  0.52079000  0.82117000  0.47809000  1.0
  C  C109  1  0.31187000  0.02316000  0.44767000  1.0
  C  C110  1  0.47118000  0.75951000  0.55240000  1.0
  C  C111  1  0.26959000  0.05598000  0.54292000  1.0
  C  C112  1  0.59908000  0.81268000  0.45667000  1.0
  C  C113  1  0.07070000  0.03733000  0.36703000  1.0
  C  C114  1  0.40437000  0.43774000  0.63296000  1.0
  C  C115  1  0.85768000  0.90982000  0.74461000  1.0
  C  C116  1  0.10909000  0.07547000  0.28910000  1.0
  C  C117  1  0.65447000  0.60225000  0.25533000  1.0
  C  C118  1  0.81865000  0.87524000  0.81756000  1.0
  C  C119  1  0.69285000  0.63616000  0.18238000  1.0
  C  C120  1  0.81479000  0.80295000  0.85641000  1.0
  C  C121  1  0.65941000  0.67116000  0.14353000  1.0
  C  C122  1  0.36458000  0.39820000  0.71089000  1.0
  C  C123  1  0.84882000  0.76314000  0.82302000  1.0
  C  C124  1  0.58623000  0.67184000  0.17691000  1.0
  C  C125  1  0.88466000  0.79633000  0.75080000  1.0
  C  C126  1  0.54718000  0.63548000  0.24914000  1.0
  C  C127  1  0.89024000  0.86954000  0.71033000  1.0
  C  C128  1  0.57991000  0.60056000  0.28962000  1.0
  C  C129  1  0.70184000  0.70753000  0.06706000  1.0
  C  C130  1  0.77468000  0.76889000  0.93289000  1.0
  C  C131  1  0.78559000  0.94775000  0.50236000  1.0
  C  C132  1  0.44998000  0.28788000  0.49781000  1.0
  C  C133  1  0.71451000  0.94892000  0.49987000  1.0
  C  C134  1  0.44866000  0.21432000  0.50028000  1.0
  C  C135  1  0.75064000  0.99862000  0.58410000  1.0
  C  C136  1  0.58259000  0.33475000  0.41593000  1.0
  C  C137  1  0.88125000  0.01839000  0.50166000  1.0
  C  C138  1  0.52001000  0.38289000  0.49838000  1.0
  C  C139  1  0.80064000  0.08078000  0.45596000  1.0
  C  C140  1  0.53674000  0.25659000  0.54405000  1.0
  C  C141  1  0.80608000  0.01167000  0.51026000  1.0
  N  N142  1  0.18124000  0.17650000  0.03417000  1.0
  N  N143  1  0.68299000  0.76518000  0.03045000  1.0
  N  N144  1  0.79570000  0.71341000  0.96949000  1.0
  N  N145  1  0.75829000  0.68194000  0.03810000  1.0
  N  N146  1  0.72014000  0.79638000  0.96185000  1.0
  N  N147  1  0.21073000  0.21535000  0.96583000  1.0
  N  N148  1  0.28989000  0.29565000  0.96602000  1.0
  N  N149  1  0.26176000  0.25586000  0.03395000  1.0
  O  O150  1  0.08706000  0.96899000  0.50562000  1.0
  O  O151  1  0.60488000  0.01448000  0.47247000  1.0
  O  O152  1  0.48679000  0.07731000  0.52761000  1.0
  O  O153  1  0.55213000  0.13523000  0.40972000  1.0
  O  O154  1  0.54487000  0.96191000  0.59035000  1.0
  O  O155  1  0.08520000  0.07421000  0.50761000  1.0
  O  O156  1  0.58183000  0.59286000  0.49226000  1.0
  O  O157  1  0.47457000  0.59271000  0.49435000  1.0
  O  O158  1  0.05244000  0.96822000  0.39988000  1.0
  O  O159  1  0.36810000  0.45232000  0.60012000  1.0
  O  O160  1  0.05817000  0.07709000  0.39564000  1.0
  O  O161  1  0.47275000  0.45385000  0.60433000  1.0
  O  O162  1  0.91194000  0.96827000  0.49812000  1.0
  O  O163  1  0.46636000  0.41006000  0.50190000  1.0
  O  O164  1  0.90988000  0.07405000  0.49901000  1.0
  O  O165  1  0.57304000  0.40888000  0.50100000  1.0
  O  O166  1  0.94956000  0.86708000  0.60220000  1.0
  O  O167  1  0.46929000  0.55177000  0.39777000  1.0
  O  O168  1  0.94321000  0.97393000  0.60052000  1.0
  O  O169  1  0.57448000  0.54373000  0.39943000  1.0
  O  O170  1  0.48426000  0.89315000  0.53403000  1.0
  O  O171  1  0.42717000  0.01817000  0.46601000  1.0
  O  O172  1  0.86198000  0.98044000  0.71011000  1.0
  O  O173  1  0.54590000  0.95059000  0.41584000  1.0
  O  O174  1  0.69058000  0.57203000  0.28984000  1.0
  O  O175  1  0.36638000  0.96161000  0.58420000  1.0
