# generated using pymatgen
data_FeH14(C3N2)6
_symmetry_space_group_name_H-M   'P 1'
_cell_length_a   7.16233000
_cell_length_b   8.04148000
_cell_length_c   9.43479520
_cell_angle_alpha   101.75509683
_cell_angle_beta   110.99180195
_cell_angle_gamma   107.28830000
_symmetry_Int_Tables_number   1
_chemical_formula_structural   FeH14(C3N2)6
_chemical_formula_sum   'Fe1 H14 C18 N12'
_cell_volume   454.14685108
_cell_formula_units_Z   1
loop_
 _symmetry_equiv_pos_site_id
 _symmetry_equiv_pos_as_xyz
  1  'x, y, z'
loop_
 _atom_site_type_symbol
 _atom_site_label
 _atom_site_symmetry_multiplicity
 _atom_site_fract_x
 _atom_site_fract_y
 _atom_site_fract_z
 _atom_site_occupancy
  Fe  Fe0  1  0.51628000  0.00206000  0.52544000  1.0
  H  H1  1  0.49139000  0.33607000  0.34622000  1.0
  H  H2  1  0.50391000  0.65364000  0.65435000  1.0
  H  H3  1  0.40685000  0.49836000  0.14554000  1.0
  H  H4  1  0.59033000  0.50260000  0.86250000  1.0
  H  H5  1  0.22589000  0.32488000  0.85216000  1.0
  H  H6  1  0.77233000  0.68692000  0.15480000  1.0
  H  H7  1  0.10702000  0.98285000  0.74287000  1.0
  H  H8  1  0.88922000  0.02966000  0.25265000  1.0
  H  H9  1  0.18711000  0.60732000  0.77908000  1.0
  H  H10  1  0.79763000  0.40156000  0.19554000  1.0
  H  H11  1  0.93875000  0.63936000  0.73725000  1.0
  H  H12  1  0.04031000  0.35936000  0.25491000  1.0
  H  H13  1  0.00474000  0.50241000  0.85714000  1.0
  H  H14  1  0.00066000  0.49709000  0.13033000  1.0
  C  C15  1  0.94568000  0.24817000  0.53900000  1.0
  C  C16  1  0.06560000  0.74672000  0.47278000  1.0
  C  C17  1  0.26067000  0.24475000  0.54307000  1.0
  C  C18  1  0.75040000  0.75029000  0.46863000  1.0
  C  C19  1  0.33874000  0.06731000  0.15512000  1.0
  C  C20  1  0.65785000  0.92789000  0.83829000  1.0
  C  C21  1  0.40670000  0.26074000  0.21636000  1.0
  C  C22  1  0.58959000  0.73418000  0.78316000  1.0
  C  C23  1  0.36206000  0.34892000  0.10405000  1.0
  C  C24  1  0.63523000  0.65210000  0.90018000  1.0
  C  C25  1  0.25597000  0.24908000  0.93526000  1.0
  C  C26  1  0.74174000  0.75789000  0.06769000  1.0
  C  C27  1  0.18840000  0.05816000  0.87266000  1.0
  C  C28  1  0.80820000  0.94902000  0.12393000  1.0
  C  C29  1  0.23021000  0.96889000  0.98620000  1.0
  C  C30  1  0.76594000  0.03222000  0.00570000  1.0
  C  C31  1  0.07333000  0.62425000  0.82797000  1.0
  C  C32  1  0.91797000  0.37796000  0.15699000  1.0
  N  N33  1  0.77599000  0.18171000  0.53960000  1.0
  N  N34  1  0.24654000  0.81795000  0.49278000  1.0
  N  N35  1  0.13237000  0.33149000  0.53942000  1.0
  N  N36  1  0.86504000  0.65765000  0.44632000  1.0
  N  N37  1  0.38498000  0.17621000  0.54448000  1.0
  N  N38  1  0.63652000  0.82335000  0.48678000  1.0
  N  N39  1  0.35145000  0.93882000  0.23063000  1.0
  N  N40  1  0.64606000  0.05389000  0.75820000  1.0
  N  N41  1  0.25889000  0.77264000  0.12175000  1.0
  N  N42  1  0.73924000  0.22386000  0.86502000  1.0
  N  N43  1  0.18429000  0.78735000  0.97321000  1.0
  N  N44  1  0.81195000  0.21240000  0.01399000  1.0
