# generated using pymatgen
data_Na2H9C9NO11
_symmetry_space_group_name_H-M   'P 1'
_cell_length_a   5.56364000
_cell_length_b   6.65605000
_cell_length_c   18.54500000
_cell_angle_alpha   81.62550000
_cell_angle_beta   85.62130000
_cell_angle_gamma   67.26260000
_symmetry_Int_Tables_number   1
_chemical_formula_structural   Na2H9C9NO11
_chemical_formula_sum   'Na4 H18 C18 N2 O22'
_cell_volume   626.48037129
_cell_formula_units_Z   2
loop_
 _symmetry_equiv_pos_site_id
 _symmetry_equiv_pos_as_xyz
  1  'x, y, z'
loop_
 _atom_site_type_symbol
 _atom_site_label
 _atom_site_symmetry_multiplicity
 _atom_site_fract_x
 _atom_site_fract_y
 _atom_site_fract_z
 _atom_site_occupancy
  Na  Na0  1  0.28902000  0.40905000  0.44572000  1.0
  Na  Na1  1  0.71089000  0.59101000  0.55429000  1.0
  Na  Na2  1  0.69632000  0.05218000  0.05338000  1.0
  Na  Na3  1  0.30381000  0.94772000  0.94662000  1.0
  H  H4  1  0.03574000  0.57799000  0.10237000  1.0
  H  H5  1  0.96435000  0.42198000  0.89762000  1.0
  H  H6  1  0.86449000  0.07945000  0.26181000  1.0
  H  H7  1  0.13548000  0.92056000  0.73820000  1.0
  H  H8  1  0.51044000  0.85127000  0.20737000  1.0
  H  H9  1  0.48959000  0.14872000  0.79263000  1.0
  H  H10  1  0.85368000  0.19968000  0.46390000  1.0
  H  H11  1  0.14625000  0.80035000  0.53611000  1.0
  H  H12  1  0.74340000  0.11028000  0.53572000  1.0
  H  H13  1  0.25651000  0.88976000  0.46429000  1.0
  H  H14  1  0.87529000  0.82157000  0.40191000  1.0
  H  H15  1  0.12467000  0.17846000  0.59810000  1.0
  H  H16  1  0.73780000  0.65678000  0.40327000  1.0
  H  H17  1  0.26209000  0.34328000  0.59674000  1.0
  H  H18  1  0.25257000  0.41000000  0.97066000  1.0
  H  H19  1  0.74753000  0.58996000  0.02935000  1.0
  H  H20  1  0.13170000  0.29244000  0.03526000  1.0
  H  H21  1  0.86836000  0.70755000  0.96474000  1.0
  C  C22  1  0.11057000  0.32121000  0.27517000  1.0
  C  C23  1  0.88940000  0.67882000  0.72483000  1.0
  C  C24  1  0.03020000  0.36927000  0.20149000  1.0
  C  C25  1  0.96980000  0.63073000  0.79850000  1.0
  C  C26  1  0.09692000  0.53066000  0.15854000  1.0
  C  C27  1  0.90311000  0.46933000  0.84145000  1.0
  C  C28  1  0.23849000  0.63857000  0.18352000  1.0
  C  C29  1  0.76153000  0.36140000  0.81649000  1.0
  C  C30  1  0.31618000  0.57363000  0.25690000  1.0
  C  C31  1  0.68383000  0.42635000  0.74310000  1.0
  C  C32  1  0.05806000  0.16012000  0.33598000  1.0
  C  C33  1  0.94189000  0.83993000  0.66402000  1.0
  C  C34  1  0.87923000  0.27167000  0.16254000  1.0
  C  C35  1  0.12078000  0.72835000  0.83745000  1.0
  C  C36  1  0.28474000  0.81040000  0.12671000  1.0
  C  C37  1  0.71539000  0.18949000  0.87327000  1.0
  C  C38  1  0.48099000  0.65527000  0.29821000  1.0
  C  C39  1  0.51896000  0.34474000  0.70181000  1.0
  N  N40  1  0.24746000  0.42312000  0.29926000  1.0
  N  N41  1  0.75249000  0.57691000  0.70075000  1.0
  O  O42  1  0.13510000  0.14902000  0.39844000  1.0
  O  O43  1  0.86486000  0.85098000  0.60155000  1.0
  O  O44  1  0.93573000  0.04022000  0.32156000  1.0
  O  O45  1  0.06420000  0.95982000  0.67844000  1.0
  O  O46  1  0.79844000  0.12738000  0.19736000  1.0
  O  O47  1  0.20158000  0.87263000  0.80262000  1.0
  O  O48  1  0.83633000  0.33312000  0.09535000  1.0
  O  O49  1  0.16370000  0.66684000  0.90463000  1.0
  O  O50  1  0.16681000  0.85651000  0.06803000  1.0
  O  O51  1  0.83339000  0.14340000  0.93195000  1.0
  O  O52  1  0.44159000  0.90010000  0.14046000  1.0
  O  O53  1  0.55853000  0.09985000  0.85954000  1.0
  O  O54  1  0.56251000  0.80508000  0.26625000  1.0
  O  O55  1  0.43745000  0.19494000  0.73376000  1.0
  O  O56  1  0.53603000  0.57237000  0.36224000  1.0
  O  O57  1  0.46387000  0.42768000  0.63777000  1.0
  O  O58  1  0.70183000  0.23664000  0.49742000  1.0
  O  O59  1  0.29810000  0.76340000  0.50258000  1.0
  O  O60  1  0.85981000  0.69187000  0.43102000  1.0
  O  O61  1  0.14010000  0.30818000  0.56899000  1.0
  O  O62  1  0.28546000  0.27106000  0.00268000  1.0
  O  O63  1  0.71461000  0.72889000  0.99732000  1.0
