# generated using pymatgen
data_CuH11C12NO6
_symmetry_space_group_name_H-M   'P 1'
_cell_length_a   8.58612000
_cell_length_b   13.31330000
_cell_length_c   13.66650000
_cell_angle_alpha   60.92400000
_cell_angle_beta   89.03530000
_cell_angle_gamma   89.96140000
_symmetry_Int_Tables_number   1
_chemical_formula_structural   CuH11C12NO6
_chemical_formula_sum   'Cu4 H44 C48 N4 O24'
_cell_volume   1365.09168887
_cell_formula_units_Z   4
loop_
 _symmetry_equiv_pos_site_id
 _symmetry_equiv_pos_as_xyz
  1  'x, y, z'
loop_
 _atom_site_type_symbol
 _atom_site_label
 _atom_site_symmetry_multiplicity
 _atom_site_fract_x
 _atom_site_fract_y
 _atom_site_fract_z
 _atom_site_occupancy
  Cu  Cu0  1  0.45102000  0.58831000  0.40886000  1.0
  Cu  Cu1  1  0.04841000  0.99739000  0.59034000  1.0
  Cu  Cu2  1  0.54897000  0.41169000  0.59114000  1.0
  Cu  Cu3  1  0.95158000  0.00261000  0.40965000  1.0
  H  H4  1  0.08416000  0.41736000  0.74081000  1.0
  H  H5  1  0.41692000  0.15837000  0.25873000  1.0
  H  H6  1  0.91584000  0.58263000  0.25919000  1.0
  H  H7  1  0.58307000  0.84161000  0.74127000  1.0
  H  H8  1  0.99031000  0.41540000  0.62741000  1.0
  H  H9  1  0.51126000  0.04330000  0.37196000  1.0
  H  H10  1  0.00968000  0.58460000  0.37260000  1.0
  H  H11  1  0.48874000  0.95669000  0.62804000  1.0
  H  H12  1  0.13534000  0.62469000  0.72288000  1.0
  H  H13  1  0.36464000  0.34709000  0.27718000  1.0
  H  H14  1  0.86467000  0.37531000  0.27712000  1.0
  H  H15  1  0.63536000  0.65290000  0.72282000  1.0
  H  H16  1  0.22995000  0.66475000  0.59279000  1.0
  H  H17  1  0.27055000  0.25736000  0.40754000  1.0
  H  H18  1  0.77005000  0.33526000  0.40720000  1.0
  H  H19  1  0.72946000  0.74263000  0.59246000  1.0
  H  H20  1  0.09375000  0.78323000  0.06137000  1.0
  H  H21  1  0.40589000  0.84492000  0.93825000  1.0
  H  H22  1  0.90624000  0.21677000  0.93863000  1.0
  H  H23  1  0.59411000  0.15508000  0.06175000  1.0
  H  H24  1  0.36316000  0.83592000  0.34763000  1.0
  H  H25  1  0.13679000  0.18375000  0.65225000  1.0
  H  H26  1  0.63684000  0.16408000  0.65236000  1.0
  H  H27  1  0.86321000  0.81625000  0.34776000  1.0
  H  H28  1  0.98313000  0.62635000  0.51996000  1.0
  H  H29  1  0.51720000  0.14644000  0.48000000  1.0
  H  H30  1  0.01689000  0.37365000  0.48004000  1.0
  H  H31  1  0.48280000  0.85355000  0.52000000  1.0
  H  H32  1  0.89232000  0.57585000  0.65278000  1.0
  H  H33  1  0.60843000  0.22877000  0.34744000  1.0
  H  H34  1  0.10768000  0.42415000  0.34721000  1.0
  H  H35  1  0.39157000  0.77123000  0.65256000  1.0
  H  H36  1  0.27059000  0.63676000  0.19933000  1.0
  H  H37  1  0.22933000  0.83651000  0.80010000  1.0
  H  H38  1  0.72939000  0.36323000  0.80067000  1.0
  H  H39  1  0.77068000  0.16349000  0.19990000  1.0
  H  H40  1  0.02043000  0.06872000  0.06289000  1.0
  H  H41  1  0.47964000  0.13149000  0.93725000  1.0
  H  H42  1  0.97955000  0.93128000  0.93711000  1.0
  H  H43  1  0.52036000  0.86851000  0.06275000  1.0
  H  H44  1  0.18921000  0.99175000  0.21781000  1.0
  H  H45  1  0.31060000  0.20952000  0.78236000  1.0
  H  H46  1  0.81078000  0.00825000  0.78219000  1.0
  H  H47  1  0.68941000  0.79047000  0.21765000  1.0
  C  C48  1  0.07147000  0.46501000  0.64945000  1.0
  C  C49  1  0.42960000  0.11465000  0.35011000  1.0
  C  C50  1  0.92853000  0.53498000  0.35055000  1.0
  C  C51  1  0.57040000  0.88534000  0.64989000  1.0
  C  C52  1  0.11584000  0.66081000  0.63292000  1.0
  C  C53  1  0.38439000  0.29357000  0.36709000  1.0
  C  C54  1  0.88417000  0.33919000  0.36708000  1.0
  C  C55  1  0.61561000  0.70642000  0.63291000  1.0
  C  C56  1  0.22910000  0.46896000  0.59514000  1.0
  C  C57  1  0.27253000  0.06391000  0.40454000  1.0
  C  C58  1  0.77089000  0.53103000  0.40485000  1.0
  C  C59  1  0.72746000  0.93609000  0.59546000  1.0
  C  C60  1  0.15194000  0.80009000  0.12218000  1.0
  C  C61  1  0.34777000  0.92256000  0.87750000  1.0
  C  C62  1  0.84805000  0.19990000  0.87782000  1.0
  C  C63  1  0.65223000  0.07744000  0.12250000  1.0
  C  C64  1  0.06746000  0.78496000  0.58633000  1.0
  C  C65  1  0.43224000  0.37142000  0.41378000  1.0
  C  C66  1  0.93253000  0.21504000  0.41367000  1.0
  C  C67  1  0.56776000  0.62858000  0.58623000  1.0
  C  C68  1  0.30220000  0.82874000  0.28189000  1.0
  C  C69  1  0.19774000  0.11083000  0.71788000  1.0
  C  C70  1  0.69779000  0.17126000  0.71810000  1.0
  C  C71  1  0.80226000  0.88917000  0.28212000  1.0
  C  C72  1  0.00508000  0.58510000  0.61000000  1.0
  C  C73  1  0.49553000  0.19524000  0.38994000  1.0
  C  C74  1  0.99493000  0.41490000  0.39000000  1.0
  C  C75  1  0.50447000  0.80476000  0.61006000  1.0
  C  C76  1  0.25098000  0.71817000  0.19843000  1.0
  C  C77  1  0.24890000  0.91697000  0.80107000  1.0
  C  C78  1  0.74901000  0.28183000  0.80157000  1.0
  C  C79  1  0.75110000  0.08303000  0.19893000  1.0
  C  C80  1  0.12918000  0.90371000  0.12453000  1.0
  C  C81  1  0.37062000  0.02835000  0.87537000  1.0
  C  C82  1  0.87081000  0.09629000  0.87547000  1.0
  C  C83  1  0.62938000  0.97164000  0.12463000  1.0
  C  C84  1  0.03413000  0.99753000  0.04528000  1.0
  C  C85  1  0.46583000  0.04279000  0.95476000  1.0
  C  C86  1  0.96586000  0.00247000  0.95473000  1.0
  C  C87  1  0.53417000  0.95721000  0.04524000  1.0
  C  C88  1  0.20516000  0.91542000  0.20878000  1.0
  C  C89  1  0.29468000  0.12429000  0.79119000  1.0
  C  C90  1  0.79484000  0.08458000  0.79122000  1.0
  C  C91  1  0.70532000  0.87571000  0.20882000  1.0
  C  C92  1  0.59553000  0.57463000  0.12176000  1.0
  C  C93  1  0.90396000  0.69580000  0.87799000  1.0
  C  C94  1  0.40446000  0.42537000  0.87824000  1.0
  C  C95  1  0.09609000  0.30423000  0.12200000  1.0
  N  N96  1  0.32787000  0.73197000  0.27635000  1.0
  N  N97  1  0.17213000  0.00866000  0.72315000  1.0
  N  N98  1  0.67212000  0.26803000  0.72365000  1.0
  N  N99  1  0.82788000  0.99134000  0.27685000  1.0
  O  O100  1  0.24586000  0.54463000  0.49285000  1.0
  O  O101  1  0.25537000  0.03689000  0.50701000  1.0
  O  O102  1  0.75414000  0.45537000  0.50715000  1.0
  O  O103  1  0.74463000  0.96311000  0.49299000  1.0
  O  O104  1  0.09183000  0.83059000  0.64830000  1.0
  O  O105  1  0.40712000  0.47860000  0.35157000  1.0
  O  O106  1  0.90816000  0.16941000  0.35170000  1.0
  O  O107  1  0.59289000  0.52140000  0.64843000  1.0
  O  O108  1  0.01073000  0.83593000  0.48852000  1.0
  O  O109  1  0.48863000  0.32441000  0.51159000  1.0
  O  O110  1  0.98925000  0.16406000  0.51148000  1.0
  O  O111  1  0.51136000  0.67558000  0.48841000  1.0
  O  O112  1  0.33275000  0.39852000  0.65598000  1.0
  O  O113  1  0.16851000  0.05357000  0.34420000  1.0
  O  O114  1  0.66724000  0.60147000  0.34402000  1.0
  O  O115  1  0.83149000  0.94643000  0.65580000  1.0
  O  O116  1  0.56503000  0.67222000  0.08588000  1.0
  O  O117  1  0.93453000  0.75762000  0.91378000  1.0
  O  O118  1  0.43494000  0.32779000  0.91412000  1.0
  O  O119  1  0.06553000  0.24242000  0.08620000  1.0
  O  O120  1  0.62749000  0.47781000  0.15395000  1.0
  O  O121  1  0.87193000  0.63108000  0.84586000  1.0
  O  O122  1  0.37251000  0.52220000  0.84604000  1.0
  O  O123  1  0.12811000  0.36895000  0.15415000  1.0
