# generated using pymatgen
data_ZnH14(C11N6)2
_symmetry_space_group_name_H-M   'P 1'
_cell_length_a   17.53900000
_cell_length_b   17.53900000
_cell_length_c   17.53900000
_cell_angle_alpha   109.31600000
_cell_angle_beta   109.31600000
_cell_angle_gamma   109.31600000
_symmetry_Int_Tables_number   1
_chemical_formula_structural   ZnH14(C11N6)2
_chemical_formula_sum   'Zn6 H84 C132 N72'
_cell_volume   4176.99124638
_cell_formula_units_Z   6
loop_
 _symmetry_equiv_pos_site_id
 _symmetry_equiv_pos_as_xyz
  1  'x, y, z'
loop_
 _atom_site_type_symbol
 _atom_site_label
 _atom_site_symmetry_multiplicity
 _atom_site_fract_x
 _atom_site_fract_y
 _atom_site_fract_z
 _atom_site_occupancy
  Zn  Zn0  1  0.24790000  0.24735000  0.76272000  1.0
  Zn  Zn1  1  0.76272000  0.24790000  0.24735000  1.0
  Zn  Zn2  1  0.24735000  0.76272000  0.24790000  1.0
  Zn  Zn3  1  0.75210000  0.75265000  0.23728000  1.0
  Zn  Zn4  1  0.23728000  0.75210000  0.75265000  1.0
  Zn  Zn5  1  0.75265000  0.23728000  0.75210000  1.0
  H  H6  1  0.37778000  0.23976000  0.65123000  1.0
  H  H7  1  0.65123000  0.37778000  0.23976000  1.0
  H  H8  1  0.23976000  0.65123000  0.37778000  1.0
  H  H9  1  0.62222000  0.76024000  0.34877000  1.0
  H  H10  1  0.34877000  0.62222000  0.76024000  1.0
  H  H11  1  0.76024000  0.34877000  0.62222000  1.0
  H  H12  1  0.51977000  0.36285000  0.66791000  1.0
  H  H13  1  0.66791000  0.51977000  0.36285000  1.0
  H  H14  1  0.36285000  0.66792000  0.51977000  1.0
  H  H15  1  0.48023000  0.63715000  0.33208000  1.0
  H  H16  1  0.33209000  0.48023000  0.63715000  1.0
  H  H17  1  0.63715000  0.33209000  0.48023000  1.0
  H  H18  1  0.53330000  0.56476000  0.88786000  1.0
  H  H19  1  0.88786000  0.53330000  0.56476000  1.0
  H  H20  1  0.56476000  0.88786000  0.53330000  1.0
  H  H21  1  0.46670000  0.43524000  0.11214000  1.0
  H  H22  1  0.11214000  0.46670000  0.43524000  1.0
  H  H23  1  0.43524000  0.11214000  0.46670000  1.0
  H  H24  1  0.42126000  0.69204000  0.05737000  1.0
  H  H25  1  0.05737000  0.42126000  0.69204000  1.0
  H  H26  1  0.69204000  0.05737000  0.42126000  1.0
  H  H27  1  0.57874000  0.30796000  0.94263000  1.0
  H  H28  1  0.94263000  0.57874000  0.30796000  1.0
  H  H29  1  0.30796000  0.94263000  0.57874000  1.0
  H  H30  1  0.38561000  0.79198000  0.16436000  1.0
  H  H31  1  0.16436000  0.38561000  0.79198000  1.0
  H  H32  1  0.79198000  0.16436000  0.38561000  1.0
  H  H33  1  0.61439000  0.20802000  0.83564000  1.0
  H  H34  1  0.83564000  0.61439000  0.20802000  1.0
  H  H35  1  0.20802000  0.83564000  0.61439000  1.0
  H  H36  1  0.21840000  0.56825000  0.17359000  1.0
  H  H37  1  0.17359000  0.21840000  0.56825000  1.0
  H  H38  1  0.56825000  0.17359000  0.21840000  1.0
  H  H39  1  0.78160000  0.43175000  0.82641000  1.0
  H  H40  1  0.82641000  0.78160000  0.43175000  1.0
  H  H41  1  0.43175000  0.82641000  0.78160000  1.0
  H  H42  1  0.24637000  0.45930000  0.06668000  1.0
  H  H43  1  0.06668000  0.24637000  0.45930000  1.0
  H  H44  1  0.45930000  0.06668000  0.24637000  1.0
  H  H45  1  0.75363000  0.54070000  0.93332000  1.0
  H  H46  1  0.93332000  0.75363000  0.54070000  1.0
  H  H47  1  0.54070000  0.93332000  0.75363000  1.0
  H  H48  1  0.10755000  0.24273000  0.86472000  1.0
  H  H49  1  0.86472000  0.10755000  0.24273000  1.0
  H  H50  1  0.24273000  0.86472000  0.10755000  1.0
  H  H51  1  0.89245000  0.75727000  0.13528000  1.0
  H  H52  1  0.13528000  0.89245000  0.75727000  1.0
  H  H53  1  0.75727000  0.13528000  0.89245000  1.0
  H  H54  1  0.95725000  0.11698000  0.83227000  1.0
  H  H55  1  0.83227000  0.95725000  0.11698000  1.0
  H  H56  1  0.11698000  0.83227000  0.95725000  1.0
  H  H57  1  0.04275000  0.88302000  0.16773000  1.0
  H  H58  1  0.16773000  0.04275000  0.88302000  1.0
  H  H59  1  0.88302000  0.16773000  0.04275000  1.0
  H  H60  1  0.95132000  0.92621000  0.60986000  1.0
  H  H61  1  0.60985000  0.95132000  0.92621000  1.0
  H  H62  1  0.92621000  0.60986000  0.95132000  1.0
  H  H63  1  0.04868000  0.07379000  0.39015000  1.0
  H  H64  1  0.39015000  0.04868000  0.07379000  1.0
  H  H65  1  0.07379000  0.39014000  0.04868000  1.0
  H  H66  1  0.26913000  0.06232000  0.46900000  1.0
  H  H67  1  0.46900000  0.26913000  0.06232000  1.0
  H  H68  1  0.06232000  0.46900000  0.26913000  1.0
  H  H69  1  0.73087000  0.93768000  0.53100000  1.0
  H  H70  1  0.53100000  0.73087000  0.93768000  1.0
  H  H71  1  0.93768000  0.53100000  0.73087000  1.0
  H  H72  1  0.29408000  0.96215000  0.35086000  1.0
  H  H73  1  0.35086000  0.29408000  0.96214000  1.0
  H  H74  1  0.96214000  0.35086000  0.29408000  1.0
  H  H75  1  0.70592000  0.03786000  0.64914000  1.0
  H  H76  1  0.64914000  0.70592000  0.03786000  1.0
  H  H77  1  0.03786000  0.64913000  0.70592000  1.0
  H  H78  1  0.09400000  0.72148000  0.30939000  1.0
  H  H79  1  0.30938000  0.09399000  0.72148000  1.0
  H  H80  1  0.72148000  0.30938000  0.09399000  1.0
  H  H81  1  0.90601000  0.27852000  0.69061000  1.0
  H  H82  1  0.69062000  0.90600000  0.27852000  1.0
  H  H83  1  0.27852000  0.69062000  0.90601000  1.0
  H  H84  1  0.05875000  0.81171000  0.42359000  1.0
  H  H85  1  0.42359000  0.05875000  0.81171000  1.0
  H  H86  1  0.81171000  0.42359000  0.05875000  1.0
  H  H87  1  0.94125000  0.18829000  0.57641000  1.0
  H  H88  1  0.57641000  0.94125000  0.18829000  1.0
  H  H89  1  0.18829000  0.57641000  0.94125000  1.0
  C  C90  1  0.41358000  0.31288000  0.70414000  1.0
  C  C91  1  0.70414000  0.41358000  0.31288000  1.0
  C  C92  1  0.31288000  0.70414000  0.41358000  1.0
  C  C93  1  0.58642000  0.68712000  0.29586000  1.0
  C  C94  1  0.29586000  0.58642000  0.68712000  1.0
  C  C95  1  0.68712000  0.29586000  0.58642000  1.0
  C  C96  1  0.49117000  0.38097000  0.71346000  1.0
  C  C97  1  0.71346000  0.49117000  0.38097000  1.0
  C  C98  1  0.38097000  0.71346000  0.49117000  1.0
  C  C99  1  0.50882000  0.61903000  0.28653000  1.0
  C  C100  1  0.28654000  0.50883000  0.61903000  1.0
  C  C101  1  0.61903000  0.28654000  0.50882000  1.0
  C  C102  1  0.49908000  0.49231000  0.83423000  1.0
  C  C103  1  0.83423000  0.49908000  0.49231000  1.0
  C  C104  1  0.49231000  0.83423000  0.49908000  1.0
  C  C105  1  0.50092000  0.50769000  0.16577000  1.0
  C  C106  1  0.16577000  0.50092000  0.50769000  1.0
  C  C107  1  0.50769000  0.16577000  0.50092000  1.0
  C  C108  1  0.42129000  0.42489000  0.82631000  1.0
  C  C109  1  0.82632000  0.42129000  0.42489000  1.0
  C  C110  1  0.42489000  0.82632000  0.42129000  1.0
  C  C111  1  0.57871000  0.57511000  0.17368000  1.0
  C  C112  1  0.17368000  0.57871000  0.57511000  1.0
  C  C113  1  0.57511000  0.17369000  0.57871000  1.0
  C  C114  1  0.38165000  0.44494000  0.88621000  1.0
  C  C115  1  0.88621000  0.38166000  0.44494000  1.0
  C  C116  1  0.44494000  0.88621000  0.38165000  1.0
  C  C117  1  0.61834000  0.55506000  0.11379000  1.0
  C  C118  1  0.11379000  0.61835000  0.55506000  1.0
  C  C119  1  0.55506000  0.11379000  0.61834000  1.0
  C  C120  1  0.34410000  0.50320000  0.98295000  1.0
  C  C121  1  0.98295000  0.34410000  0.50320000  1.0
  C  C122  1  0.50320000  0.98295000  0.34410000  1.0
  C  C123  1  0.65590000  0.49680000  0.01704000  1.0
  C  C124  1  0.01704000  0.65590000  0.49680000  1.0
  C  C125  1  0.49680000  0.01705000  0.65590000  1.0
  C  C126  1  0.33461000  0.56705000  0.05207000  1.0
  C  C127  1  0.05207000  0.33461000  0.56705000  1.0
  C  C128  1  0.56705000  0.05207000  0.33461000  1.0
  C  C129  1  0.66539000  0.43295000  0.94793000  1.0
  C  C130  1  0.94793000  0.66539000  0.43295000  1.0
  C  C131  1  0.43295000  0.94793000  0.66540000  1.0
  C  C132  1  0.37632000  0.66261000  0.08227000  1.0
  C  C133  1  0.08228000  0.37632000  0.66261000  1.0
  C  C134  1  0.66261000  0.08228000  0.37632000  1.0
  C  C135  1  0.62368000  0.33739000  0.91772000  1.0
  C  C136  1  0.91772000  0.62368000  0.33739000  1.0
  C  C137  1  0.33739000  0.91772000  0.62368000  1.0
  C  C138  1  0.35653000  0.71785000  0.14146000  1.0
  C  C139  1  0.14147000  0.35653000  0.71785000  1.0
  C  C140  1  0.71785000  0.14147000  0.35653000  1.0
  C  C141  1  0.64347000  0.28215000  0.85853000  1.0
  C  C142  1  0.85853000  0.64347000  0.28215000  1.0
  C  C143  1  0.28215000  0.85854000  0.64347000  1.0
  C  C144  1  0.26309000  0.59288000  0.14642000  1.0
  C  C145  1  0.14642000  0.26309000  0.59288000  1.0
  C  C146  1  0.59288000  0.14642000  0.26309000  1.0
  C  C147  1  0.73691000  0.40712000  0.85358000  1.0
  C  C148  1  0.85358000  0.73691000  0.40712000  1.0
  C  C149  1  0.40712000  0.85358000  0.73691000  1.0
  C  C150  1  0.27840000  0.53268000  0.08723000  1.0
  C  C151  1  0.08723000  0.27840000  0.53268000  1.0
  C  C152  1  0.53268000  0.08723000  0.27840000  1.0
  C  C153  1  0.72160000  0.46732000  0.91277000  1.0
  C  C154  1  0.91277000  0.72160000  0.46732000  1.0
  C  C155  1  0.46732000  0.91277000  0.72160000  1.0
  C  C156  1  0.07182000  0.17155000  0.80761000  1.0
  C  C157  1  0.80761000  0.07182000  0.17155000  1.0
  C  C158  1  0.17155000  0.80761000  0.07182000  1.0
  C  C159  1  0.92818000  0.82845000  0.19239000  1.0
  C  C160  1  0.19239000  0.92818000  0.82845000  1.0
  C  C161  1  0.82845000  0.19239000  0.92818000  1.0
  C  C162  1  0.98952000  0.10190000  0.78977000  1.0
  C  C163  1  0.78977000  0.98952000  0.10189000  1.0
  C  C164  1  0.10189000  0.78977000  0.98952000  1.0
  C  C165  1  0.01048000  0.89810000  0.21023000  1.0
  C  C166  1  0.21023000  0.01048000  0.89811000  1.0
  C  C167  1  0.89811000  0.21023000  0.01048000  1.0
  C  C168  1  0.98568000  0.99676000  0.66749000  1.0
  C  C169  1  0.66749000  0.98568000  0.99676000  1.0
  C  C170  1  0.99676000  0.66749000  0.98568000  1.0
  C  C171  1  0.01432000  0.00324000  0.33251000  1.0
  C  C172  1  0.33251000  0.01432000  0.00324000  1.0
  C  C173  1  0.00324000  0.33251000  0.01432000  1.0
  C  C174  1  0.06771000  0.06604000  0.68338000  1.0
  C  C175  1  0.68338000  0.06771000  0.06604000  1.0
  C  C176  1  0.06603000  0.68338000  0.06771000  1.0
  C  C177  1  0.93229000  0.93396000  0.31662000  1.0
  C  C178  1  0.31662000  0.93229000  0.93397000  1.0
  C  C179  1  0.93396000  0.31662000  0.93229000  1.0
  C  C180  1  0.11085000  0.05095000  0.62604000  1.0
  C  C181  1  0.62604000  0.11085000  0.05095000  1.0
  C  C182  1  0.05095000  0.62604000  0.11085000  1.0
  C  C183  1  0.88915000  0.94905000  0.37396000  1.0
  C  C184  1  0.37396000  0.88915000  0.94905000  1.0
  C  C185  1  0.94905000  0.37396000  0.88915000  1.0
  C  C186  1  0.15195000  0.00183000  0.52928000  1.0
  C  C187  1  0.52928000  0.15195000  0.00183000  1.0
  C  C188  1  0.00183000  0.52928000  0.15195000  1.0
  C  C189  1  0.84805000  0.99817000  0.47072000  1.0
  C  C190  1  0.47072000  0.84805000  0.99817000  1.0
  C  C191  1  0.99817000  0.47072000  0.84805000  1.0
  C  C192  1  0.16265000  0.94453000  0.45650000  1.0
  C  C193  1  0.45650000  0.16265000  0.94453000  1.0
  C  C194  1  0.94453000  0.45650000  0.16265000  1.0
  C  C195  1  0.83735000  0.05547000  0.54350000  1.0
  C  C196  1  0.54350000  0.83735000  0.05547000  1.0
  C  C197  1  0.05548000  0.54350000  0.83735000  1.0
  C  C198  1  0.22877000  0.98694000  0.43427000  1.0
  C  C199  1  0.43427000  0.22877000  0.98694000  1.0
  C  C200  1  0.98694000  0.43427000  0.22877000  1.0
  C  C201  1  0.77123000  0.01306000  0.56573000  1.0
  C  C202  1  0.56573000  0.77123000  0.01306000  1.0
  C  C203  1  0.01306000  0.56573000  0.77123000  1.0
  C  C204  1  0.24264000  0.93174000  0.36911000  1.0
  C  C205  1  0.36911000  0.24264000  0.93174000  1.0
  C  C206  1  0.93174000  0.36911000  0.24264000  1.0
  C  C207  1  0.75736000  0.06826000  0.63089000  1.0
  C  C208  1  0.63089000  0.75736000  0.06826000  1.0
  C  C209  1  0.06826000  0.63089000  0.75736000  1.0
  C  C210  1  0.13048000  0.79724000  0.34514000  1.0
  C  C211  1  0.34514000  0.13048000  0.79724000  1.0
  C  C212  1  0.79724000  0.34514000  0.13048000  1.0
  C  C213  1  0.86952000  0.20276000  0.65486000  1.0
  C  C214  1  0.65486000  0.86952000  0.20276000  1.0
  C  C215  1  0.20276000  0.65486000  0.86952000  1.0
  C  C216  1  0.11122000  0.84719000  0.40889000  1.0
  C  C217  1  0.40889000  0.11122000  0.84719000  1.0
  C  C218  1  0.84719000  0.40889000  0.11122000  1.0
  C  C219  1  0.88878000  0.15281000  0.59111000  1.0
  C  C220  1  0.59111000  0.88878000  0.15281000  1.0
  C  C221  1  0.15281000  0.59111000  0.88878000  1.0
  N  N222  1  0.37849000  0.33492000  0.75994000  1.0
  N  N223  1  0.75994000  0.37849000  0.33492000  1.0
  N  N224  1  0.33492000  0.75994000  0.37849000  1.0
  N  N225  1  0.62151000  0.66508000  0.24006000  1.0
  N  N226  1  0.24006000  0.62152000  0.66508000  1.0
  N  N227  1  0.66508000  0.24006000  0.62151000  1.0
  N  N228  1  0.53377000  0.47085000  0.77812000  1.0
  N  N229  1  0.77811000  0.53377000  0.47085000  1.0
  N  N230  1  0.47085000  0.77812000  0.53377000  1.0
  N  N231  1  0.46623000  0.52915000  0.22188000  1.0
  N  N232  1  0.22188000  0.46623000  0.52915000  1.0
  N  N233  1  0.52915000  0.22188000  0.46623000  1.0
  N  N234  1  0.40442000  0.52815000  0.95165000  1.0
  N  N235  1  0.95165000  0.40442000  0.52815000  1.0
  N  N236  1  0.52815000  0.95165000  0.40442000  1.0
  N  N237  1  0.59558000  0.47185000  0.04835000  1.0
  N  N238  1  0.04835000  0.59558000  0.47185000  1.0
  N  N239  1  0.47185000  0.04835000  0.59558000  1.0
  N  N240  1  0.31150000  0.37358000  0.87800000  1.0
  N  N241  1  0.87800000  0.31150000  0.37358000  1.0
  N  N242  1  0.37358000  0.87800000  0.31150000  1.0
  N  N243  1  0.68850000  0.62642000  0.12200000  1.0
  N  N244  1  0.12200000  0.68850000  0.62642000  1.0
  N  N245  1  0.62642000  0.12200000  0.68850000  1.0
  N  N246  1  0.28676000  0.40990000  0.93969000  1.0
  N  N247  1  0.93969000  0.28676000  0.40991000  1.0
  N  N248  1  0.40991000  0.93969000  0.28676000  1.0
  N  N249  1  0.71324000  0.59009000  0.06031000  1.0
  N  N250  1  0.06031000  0.71324000  0.59009000  1.0
  N  N251  1  0.59010000  0.06031000  0.71324000  1.0
  N  N252  1  0.29975000  0.68381000  0.17222000  1.0
  N  N253  1  0.17222000  0.29975000  0.68381000  1.0
  N  N254  1  0.68381000  0.17222000  0.29975000  1.0
  N  N255  1  0.70025000  0.31619000  0.82778000  1.0
  N  N256  1  0.82778000  0.70025000  0.31619000  1.0
  N  N257  1  0.31619000  0.82778000  0.70025000  1.0
  N  N258  1  0.11115000  0.15365000  0.75521000  1.0
  N  N259  1  0.75521000  0.11114000  0.15364000  1.0
  N  N260  1  0.15364000  0.75521000  0.11114000  1.0
  N  N261  1  0.88885000  0.84635000  0.24479000  1.0
  N  N262  1  0.24479000  0.88886000  0.84636000  1.0
  N  N263  1  0.84635000  0.24479000  0.88885000  1.0
  N  N264  1  0.94686000  0.01419000  0.72037000  1.0
  N  N265  1  0.72037000  0.94686000  0.01419000  1.0
  N  N266  1  0.01419000  0.72037000  0.94686000  1.0
  N  N267  1  0.05314000  0.98581000  0.27963000  1.0
  N  N268  1  0.27963000  0.05314000  0.98581000  1.0
  N  N269  1  0.98581000  0.27963000  0.05314000  1.0
  N  N270  1  0.18569000  0.12499000  0.64390000  1.0
  N  N271  1  0.64390000  0.18569000  0.12499000  1.0
  N  N272  1  0.12499000  0.64390000  0.18569000  1.0
  N  N273  1  0.81431000  0.87501000  0.35610000  1.0
  N  N274  1  0.35610000  0.81431000  0.87501000  1.0
  N  N275  1  0.87501000  0.35610000  0.81431000  1.0
  N  N276  1  0.21275000  0.09471000  0.58248000  1.0
  N  N277  1  0.58248000  0.21275000  0.09470000  1.0
  N  N278  1  0.09471000  0.58248000  0.21275000  1.0
  N  N279  1  0.78725000  0.90529000  0.41752000  1.0
  N  N280  1  0.41752000  0.78725000  0.90529000  1.0
  N  N281  1  0.90530000  0.41752000  0.78725000  1.0
  N  N282  1  0.08705000  0.97139000  0.55408000  1.0
  N  N283  1  0.55408000  0.08705000  0.97139000  1.0
  N  N284  1  0.97139000  0.55408000  0.08705000  1.0
  N  N285  1  0.91295000  0.02861000  0.44592000  1.0
  N  N286  1  0.44592000  0.91295000  0.02861000  1.0
  N  N287  1  0.02861000  0.44592000  0.91295000  1.0
  N  N288  1  0.19577000  0.83823000  0.32581000  1.0
  N  N289  1  0.32581000  0.19577000  0.83823000  1.0
  N  N290  1  0.83823000  0.32581000  0.19577000  1.0
  N  N291  1  0.80423000  0.16177000  0.67419000  1.0
  N  N292  1  0.67419000  0.80423000  0.16177000  1.0
  N  N293  1  0.16177000  0.67419000  0.80423000  1.0
