# generated using pymatgen
data_CuH11C19N3O5
_symmetry_space_group_name_H-M   'P 1'
_cell_length_a   18.19820000
_cell_length_b   18.19820000
_cell_length_c   19.32460000
_cell_angle_alpha   61.90740000
_cell_angle_beta   61.90730000
_cell_angle_gamma   59.99960000
_symmetry_Int_Tables_number   1
_chemical_formula_structural   CuH11C19N3O5
_chemical_formula_sum   'Cu6 H66 C114 N18 O30'
_cell_volume   4651.44144789
_cell_formula_units_Z   6
loop_
 _symmetry_equiv_pos_site_id
 _symmetry_equiv_pos_as_xyz
  1  'x, y, z'
loop_
 _atom_site_type_symbol
 _atom_site_label
 _atom_site_symmetry_multiplicity
 _atom_site_fract_x
 _atom_site_fract_y
 _atom_site_fract_z
 _atom_site_occupancy
  Cu  Cu0  1  0.96379000  0.53247000  0.56165000  1.0
  Cu  Cu1  1  0.53248000  0.94207000  0.56166000  1.0
  Cu  Cu2  1  0.94207000  0.96377000  0.56166000  1.0
  Cu  Cu3  1  0.05792000  0.46751000  0.43835000  1.0
  Cu  Cu4  1  0.46753000  0.03622000  0.43835000  1.0
  Cu  Cu5  1  0.03621000  0.05793000  0.43835000  1.0
  H  H6  1  0.64174000  0.86260000  0.28060000  1.0
  H  H7  1  0.86261000  0.21505000  0.28058000  1.0
  H  H8  1  0.21508000  0.64176000  0.28061000  1.0
  H  H9  1  0.78492000  0.13741000  0.71941000  1.0
  H  H10  1  0.13740000  0.35826000  0.71940000  1.0
  H  H11  1  0.35822000  0.78494000  0.71941000  1.0
  H  H12  1  0.75055000  0.73179000  0.48089000  1.0
  H  H13  1  0.73180000  0.03677000  0.48090000  1.0
  H  H14  1  0.03677000  0.75058000  0.48085000  1.0
  H  H15  1  0.96323000  0.26819000  0.51911000  1.0
  H  H16  1  0.26821000  0.24944000  0.51911000  1.0
  H  H17  1  0.24942000  0.96323000  0.51915000  1.0
  H  H18  1  0.88718000  0.63247000  0.27296000  1.0
  H  H19  1  0.63247000  0.20739000  0.27297000  1.0
  H  H20  1  0.20742000  0.88723000  0.27291000  1.0
  H  H21  1  0.79263000  0.36751000  0.72705000  1.0
  H  H22  1  0.36753000  0.11282000  0.72704000  1.0
  H  H23  1  0.11279000  0.79255000  0.72707000  1.0
  H  H24  1  0.71393000  0.81301000  0.17140000  1.0
  H  H25  1  0.81306000  0.30162000  0.17141000  1.0
  H  H26  1  0.30164000  0.71393000  0.17141000  1.0
  H  H27  1  0.69837000  0.18695000  0.82859000  1.0
  H  H28  1  0.18699000  0.28607000  0.82860000  1.0
  H  H29  1  0.28607000  0.69835000  0.82859000  1.0
  H  H30  1  0.94995000  0.69844000  0.99143000  1.0
  H  H31  1  0.69840000  0.36015000  0.99149000  1.0
  H  H32  1  0.36018000  0.94994000  0.99146000  1.0
  H  H33  1  0.63985000  0.30160000  0.00851000  1.0
  H  H34  1  0.30157000  0.05004000  0.00857000  1.0
  H  H35  1  0.05005000  0.63982000  0.00853000  1.0
  H  H36  1  0.93499000  0.75383000  0.85493000  1.0
  H  H37  1  0.75375000  0.45627000  0.85500000  1.0
  H  H38  1  0.45626000  0.93493000  0.85501000  1.0
  H  H39  1  0.54374000  0.24626000  0.14500000  1.0
  H  H40  1  0.24617000  0.06501000  0.14507000  1.0
  H  H41  1  0.06507000  0.54373000  0.14499000  1.0
  H  H42  1  0.64900000  0.87127000  0.95789000  1.0
  H  H43  1  0.87126000  0.52182000  0.95788000  1.0
  H  H44  1  0.52182000  0.64899000  0.95793000  1.0
  H  H45  1  0.47818000  0.12874000  0.04213000  1.0
  H  H46  1  0.12873000  0.35099000  0.04211000  1.0
  H  H47  1  0.35101000  0.47819000  0.04207000  1.0
  H  H48  1  0.66527000  0.81327000  0.09476000  1.0
  H  H49  1  0.81331000  0.42669000  0.09473000  1.0
  H  H50  1  0.42668000  0.66523000  0.09479000  1.0
  H  H51  1  0.57330000  0.18670000  0.90527000  1.0
  H  H52  1  0.18673000  0.33473000  0.90524000  1.0
  H  H53  1  0.33477000  0.57332000  0.90520000  1.0
  H  H54  1  0.65488000  0.83923000  0.85076000  1.0
  H  H55  1  0.83920000  0.65510000  0.85077000  1.0
  H  H56  1  0.65512000  0.65492000  0.85076000  1.0
  H  H57  1  0.34490000  0.16081000  0.14922000  1.0
  H  H58  1  0.16078000  0.34512000  0.14923000  1.0
  H  H59  1  0.34508000  0.34488000  0.14923000  1.0
  H  H60  1  0.77014000  0.92690000  0.59806000  1.0
  H  H61  1  0.92693000  0.70491000  0.59807000  1.0
  H  H62  1  0.70486000  0.77011000  0.59807000  1.0
  H  H63  1  0.29511000  0.07306000  0.40192000  1.0
  H  H64  1  0.07310000  0.22987000  0.40194000  1.0
  H  H65  1  0.22990000  0.29514000  0.40192000  1.0
  H  H66  1  0.90836000  0.87457000  0.74499000  1.0
  H  H67  1  0.87456000  0.47207000  0.74498000  1.0
  H  H68  1  0.47206000  0.90839000  0.74499000  1.0
  H  H69  1  0.52794000  0.12543000  0.25502000  1.0
  H  H70  1  0.12544000  0.09164000  0.25501000  1.0
  H  H71  1  0.09162000  0.52795000  0.25501000  1.0
  C  C72  1  0.89692000  0.60761000  0.42126000  1.0
  C  C73  1  0.60760000  0.07423000  0.42133000  1.0
  C  C74  1  0.07424000  0.89695000  0.42125000  1.0
  C  C75  1  0.92577000  0.39240000  0.57868000  1.0
  C  C76  1  0.39239000  0.10308000  0.57874000  1.0
  C  C77  1  0.10305000  0.92576000  0.57875000  1.0
  C  C78  1  0.76475000  0.74729000  0.26789000  1.0
  C  C79  1  0.74729000  0.22006000  0.26791000  1.0
  C  C80  1  0.22006000  0.76478000  0.26788000  1.0
  C  C81  1  0.77993000  0.25271000  0.73210000  1.0
  C  C82  1  0.25271000  0.23525000  0.73212000  1.0
  C  C83  1  0.23522000  0.77994000  0.73213000  1.0
  C  C84  1  0.69352000  0.80898000  0.30843000  1.0
  C  C85  1  0.80895000  0.18909000  0.30846000  1.0
  C  C86  1  0.18908000  0.69354000  0.30844000  1.0
  C  C87  1  0.81089000  0.19105000  0.69155000  1.0
  C  C88  1  0.19102000  0.30648000  0.69157000  1.0
  C  C89  1  0.30645000  0.81093000  0.69158000  1.0
  C  C90  1  0.68824000  0.80337000  0.38500000  1.0
  C  C91  1  0.80333000  0.12347000  0.38505000  1.0
  C  C92  1  0.12343000  0.68824000  0.38502000  1.0
  C  C93  1  0.87652000  0.19667000  0.61495000  1.0
  C  C94  1  0.19662000  0.31177000  0.61500000  1.0
  C  C95  1  0.31175000  0.87658000  0.61499000  1.0
  C  C96  1  0.75406000  0.73629000  0.42148000  1.0
  C  C97  1  0.73624000  0.08825000  0.42153000  1.0
  C  C98  1  0.08820000  0.75409000  0.42146000  1.0
  C  C99  1  0.91175000  0.26376000  0.57848000  1.0
  C  C100  1  0.26370000  0.24594000  0.57853000  1.0
  C  C101  1  0.24591000  0.91180000  0.57854000  1.0
  C  C102  1  0.82565000  0.67559000  0.38093000  1.0
  C  C103  1  0.67555000  0.11789000  0.38099000  1.0
  C  C104  1  0.11788000  0.82568000  0.38092000  1.0
  C  C105  1  0.88212000  0.32444000  0.61902000  1.0
  C  C106  1  0.32441000  0.17435000  0.61907000  1.0
  C  C107  1  0.17432000  0.88211000  0.61908000  1.0
  C  C108  1  0.83150000  0.67990000  0.30426000  1.0
  C  C109  1  0.67987000  0.18436000  0.30430000  1.0
  C  C110  1  0.18438000  0.83153000  0.30424000  1.0
  C  C111  1  0.81565000  0.32012000  0.69572000  1.0
  C  C112  1  0.32010000  0.16850000  0.69574000  1.0
  C  C113  1  0.16848000  0.81561000  0.69575000  1.0
  C  C114  1  0.61491000  0.87130000  0.42698000  1.0
  C  C115  1  0.87127000  0.08684000  0.42700000  1.0
  C  C116  1  0.08686000  0.61490000  0.42695000  1.0
  C  C117  1  0.91315000  0.12873000  0.57300000  1.0
  C  C118  1  0.12869000  0.38508000  0.57302000  1.0
  C  C119  1  0.38510000  0.91314000  0.57305000  1.0
  C  C120  1  0.82913000  0.71596000  0.13312000  1.0
  C  C121  1  0.71598000  0.32177000  0.13317000  1.0
  C  C122  1  0.32177000  0.82911000  0.13316000  1.0
  C  C123  1  0.67823000  0.28402000  0.86684000  1.0
  C  C124  1  0.28405000  0.17087000  0.86688000  1.0
  C  C125  1  0.17088000  0.67822000  0.86684000  1.0
  C  C126  1  0.81024000  0.75264000  0.05300000  1.0
  C  C127  1  0.75271000  0.38403000  0.05303000  1.0
  C  C128  1  0.38408000  0.81021000  0.05306000  1.0
  C  C129  1  0.61597000  0.24730000  0.94697000  1.0
  C  C130  1  0.24737000  0.18976000  0.94699000  1.0
  C  C131  1  0.18978000  0.61591000  0.94694000  1.0
  C  C132  1  0.88416000  0.73649000  0.98398000  1.0
  C  C133  1  0.73646000  0.39534000  0.98404000  1.0
  C  C134  1  0.39536000  0.88413000  0.98404000  1.0
  C  C135  1  0.60466000  0.26354000  0.01596000  1.0
  C  C136  1  0.26351000  0.11584000  0.01601000  1.0
  C  C137  1  0.11587000  0.60464000  0.01595000  1.0
  C  C138  1  0.87517000  0.76849000  0.90654000  1.0
  C  C139  1  0.76840000  0.44981000  0.90661000  1.0
  C  C140  1  0.44981000  0.87512000  0.90663000  1.0
  C  C141  1  0.55019000  0.23161000  0.09339000  1.0
  C  C142  1  0.23151000  0.12483000  0.09346000  1.0
  C  C143  1  0.12487000  0.55019000  0.09337000  1.0
  C  C144  1  0.79043000  0.81786000  0.89546000  1.0
  C  C145  1  0.81784000  0.49621000  0.89548000  1.0
  C  C146  1  0.49626000  0.79041000  0.89551000  1.0
  C  C147  1  0.50379000  0.18216000  0.10452000  1.0
  C  C148  1  0.18214000  0.20957000  0.10454000  1.0
  C  C149  1  0.20958000  0.50374000  0.10449000  1.0
  C  C150  1  0.71554000  0.83310000  0.96481000  1.0
  C  C151  1  0.83316000  0.48647000  0.96479000  1.0
  C  C152  1  0.48651000  0.71553000  0.96484000  1.0
  C  C153  1  0.51353000  0.16684000  0.03521000  1.0
  C  C154  1  0.16691000  0.28446000  0.03519000  1.0
  C  C155  1  0.28447000  0.51349000  0.03516000  1.0
  C  C156  1  0.72527000  0.80116000  0.04243000  1.0
  C  C157  1  0.80125000  0.43104000  0.04242000  1.0
  C  C158  1  0.43108000  0.72525000  0.04247000  1.0
  C  C159  1  0.56896000  0.19876000  0.95758000  1.0
  C  C160  1  0.19885000  0.27473000  0.95757000  1.0
  C  C161  1  0.27475000  0.56892000  0.95752000  1.0
  C  C162  1  0.78252000  0.85099000  0.81276000  1.0
  C  C163  1  0.85095000  0.55371000  0.81277000  1.0
  C  C164  1  0.55374000  0.78257000  0.81277000  1.0
  C  C165  1  0.44630000  0.14905000  0.18723000  1.0
  C  C166  1  0.14902000  0.21748000  0.18724000  1.0
  C  C167  1  0.21744000  0.44627000  0.18722000  1.0
  C  C168  1  0.84969000  0.87543000  0.74161000  1.0
  C  C169  1  0.87544000  0.53325000  0.74160000  1.0
  C  C170  1  0.53323000  0.84971000  0.74163000  1.0
  C  C171  1  0.46676000  0.12456000  0.25840000  1.0
  C  C172  1  0.12457000  0.15031000  0.25839000  1.0
  C  C173  1  0.15030000  0.46677000  0.25837000  1.0
  C  C174  1  0.77305000  0.90518000  0.66013000  1.0
  C  C175  1  0.90525000  0.66160000  0.66014000  1.0
  C  C176  1  0.66158000  0.77303000  0.66014000  1.0
  C  C177  1  0.33841000  0.09475000  0.33986000  1.0
  C  C178  1  0.09482000  0.22696000  0.33987000  1.0
  C  C179  1  0.22698000  0.33843000  0.33985000  1.0
  C  C180  1  0.71001000  0.85784000  0.79895000  1.0
  C  C181  1  0.85779000  0.63317000  0.79897000  1.0
  C  C182  1  0.63319000  0.71006000  0.79896000  1.0
  C  C183  1  0.36684000  0.14221000  0.20103000  1.0
  C  C184  1  0.14216000  0.28999000  0.20105000  1.0
  C  C185  1  0.28994000  0.36681000  0.20104000  1.0
  N  N186  1  0.76503000  0.75916000  0.19034000  1.0
  N  N187  1  0.75919000  0.28544000  0.19036000  1.0
  N  N188  1  0.28545000  0.76503000  0.19035000  1.0
  N  N189  1  0.71455000  0.24081000  0.80964000  1.0
  N  N190  1  0.24085000  0.23497000  0.80966000  1.0
  N  N191  1  0.23497000  0.71455000  0.80965000  1.0
  N  N192  1  0.84516000  0.90244000  0.66589000  1.0
  N  N193  1  0.90249000  0.58648000  0.66589000  1.0
  N  N194  1  0.58645000  0.84515000  0.66591000  1.0
  N  N195  1  0.41353000  0.09751000  0.33411000  1.0
  N  N196  1  0.09756000  0.15484000  0.33410000  1.0
  N  N197  1  0.15485000  0.41356000  0.33408000  1.0
  N  N198  1  0.70474000  0.88462000  0.72352000  1.0
  N  N199  1  0.88462000  0.68707000  0.72355000  1.0
  N  N200  1  0.68707000  0.70475000  0.72353000  1.0
  N  N201  1  0.31294000  0.11537000  0.27645000  1.0
  N  N202  1  0.11539000  0.29526000  0.27647000  1.0
  N  N203  1  0.29525000  0.31293000  0.27646000  1.0
  O  O204  1  0.88603000  0.61351000  0.48890000  1.0
  O  O205  1  0.61351000  0.01157000  0.48896000  1.0
  O  O206  1  0.01156000  0.88607000  0.48887000  1.0
  O  O207  1  0.98842000  0.38649000  0.51104000  1.0
  O  O208  1  0.38650000  0.11397000  0.51110000  1.0
  O  O209  1  0.11392000  0.98846000  0.51115000  1.0
  O  O210  1  0.96202000  0.55099000  0.38519000  1.0
  O  O211  1  0.55100000  0.10179000  0.38524000  1.0
  O  O212  1  0.10183000  0.96205000  0.38521000  1.0
  O  O213  1  0.89820000  0.44900000  0.61476000  1.0
  O  O214  1  0.44901000  0.03798000  0.61481000  1.0
  O  O215  1  0.03795000  0.89817000  0.61480000  1.0
  O  O216  1  0.60898000  0.85380000  0.50121000  1.0
  O  O217  1  0.85376000  0.03607000  0.50125000  1.0
  O  O218  1  0.03605000  0.60895000  0.50119000  1.0
  O  O219  1  0.96391000  0.14624000  0.49875000  1.0
  O  O220  1  0.14620000  0.39100000  0.49879000  1.0
  O  O221  1  0.39104000  0.96395000  0.49881000  1.0
  O  O222  1  0.56639000  0.94068000  0.38539000  1.0
  O  O223  1  0.94068000  0.10749000  0.38537000  1.0
  O  O224  1  0.10757000  0.56642000  0.38535000  1.0
  O  O225  1  0.89252000  0.05930000  0.61463000  1.0
  O  O226  1  0.05933000  0.43360000  0.61461000  1.0
  O  O227  1  0.43358000  0.89242000  0.61465000  1.0
  O  O228  1  0.89870000  0.65318000  0.14434000  1.0
  O  O229  1  0.65313000  0.30384000  0.14443000  1.0
  O  O230  1  0.30377000  0.89868000  0.14437000  1.0
  O  O231  1  0.69616000  0.34688000  0.85557000  1.0
  O  O232  1  0.34683000  0.10130000  0.85566000  1.0
  O  O233  1  0.10132000  0.69623000  0.85562000  1.0
