# generated using pymatgen
data_AlH13C16O6F
_symmetry_space_group_name_H-M   'P 1'
_cell_length_a   6.66333000
_cell_length_b   19.48210000
_cell_length_c   19.99970000
_cell_angle_alpha   81.10230000
_cell_angle_beta   89.99920000
_cell_angle_gamma   89.99960000
_symmetry_Int_Tables_number   1
_chemical_formula_structural   AlH13C16O6F
_chemical_formula_sum   'Al4 H52 C64 O24 F4'
_cell_volume   2565.03091404
_cell_formula_units_Z   4
loop_
 _symmetry_equiv_pos_site_id
 _symmetry_equiv_pos_as_xyz
  1  'x, y, z'
loop_
 _atom_site_type_symbol
 _atom_site_label
 _atom_site_symmetry_multiplicity
 _atom_site_fract_x
 _atom_site_fract_y
 _atom_site_fract_z
 _atom_site_occupancy
  Al  Al0  1  0.77319000  0.74946000  0.24750000  1.0
  Al  Al1  1  0.23580000  0.24978000  0.75079000  1.0
  Al  Al2  1  0.27318000  0.75053000  0.25250000  1.0
  Al  Al3  1  0.73580000  0.25021000  0.74921000  1.0
  H  H4  1  0.68177000  0.98787000  0.44635000  1.0
  H  H5  1  0.30141000  0.06277000  0.50113000  1.0
  H  H6  1  0.18180000  0.51212000  0.05367000  1.0
  H  H7  1  0.80146000  0.43726000  0.99883000  1.0
  H  H8  1  0.31800000  0.86938000  0.40522000  1.0
  H  H9  1  0.68374000  0.09674000  0.63038000  1.0
  H  H10  1  0.81801000  0.63063000  0.09477000  1.0
  H  H11  1  0.18372000  0.40325000  0.86964000  1.0
  H  H12  1  0.31294000  0.95168000  0.48813000  1.0
  H  H13  1  0.68388000  0.00926000  0.55220000  1.0
  H  H14  1  0.81293000  0.54834000  0.01185000  1.0
  H  H15  1  0.18386000  0.49072000  0.94782000  1.0
  H  H16  1  0.27099000  0.83648000  0.04414000  1.0
  H  H17  1  0.75706000  0.16313000  0.95577000  1.0
  H  H18  1  0.77099000  0.66351000  0.45587000  1.0
  H  H19  1  0.25706000  0.33686000  0.54423000  1.0
  H  H20  1  0.73557000  0.07717000  0.06121000  1.0
  H  H21  1  0.30146000  0.92488000  0.94009000  1.0
  H  H22  1  0.23557000  0.42283000  0.43880000  1.0
  H  H23  1  0.80147000  0.57511000  0.55992000  1.0
  H  H24  1  0.56289000  0.90277000  0.14612000  1.0
  H  H25  1  0.54132000  0.98126000  0.08697000  1.0
  H  H26  1  0.58268000  0.97168000  0.24116000  1.0
  H  H27  1  0.57312000  0.04989000  0.18355000  1.0
  H  H28  1  0.22261000  0.01994000  0.14806000  1.0
  H  H29  1  0.23409000  0.02208000  0.23627000  1.0
  H  H30  1  0.23215000  0.94132000  0.20569000  1.0
  H  H31  1  0.22698000  0.05481000  0.75947000  1.0
  H  H32  1  0.98130000  0.05022000  0.79474000  1.0
  H  H33  1  0.26492000  0.92692000  0.79083000  1.0
  H  H34  1  0.03262000  0.92144000  0.83398000  1.0
  H  H35  1  0.84991000  0.96029000  0.72455000  1.0
  H  H36  1  0.99706000  0.88562000  0.71836000  1.0
  H  H37  1  0.08021000  0.96897000  0.67975000  1.0
  H  H38  1  0.06287000  0.59722000  0.35389000  1.0
  H  H39  1  0.04133000  0.51874000  0.41305000  1.0
  H  H40  1  0.08262000  0.52831000  0.25886000  1.0
  H  H41  1  0.07315000  0.45010000  0.31647000  1.0
  H  H42  1  0.72266000  0.48003000  0.35200000  1.0
  H  H43  1  0.73408000  0.47786000  0.26379000  1.0
  H  H44  1  0.73208000  0.55863000  0.29435000  1.0
  H  H45  1  0.72700000  0.44520000  0.74054000  1.0
  H  H46  1  0.48131000  0.44978000  0.70527000  1.0
  H  H47  1  0.76490000  0.57308000  0.70916000  1.0
  H  H48  1  0.53260000  0.57856000  0.66602000  1.0
  H  H49  1  0.34991000  0.53971000  0.77546000  1.0
  H  H50  1  0.49706000  0.61439000  0.78163000  1.0
  H  H51  1  0.58022000  0.53104000  0.82024000  1.0
  H  H52  1  0.53062000  0.83348000  0.26916000  1.0
  H  H53  1  0.48686000  0.16505000  0.78968000  1.0
  H  H54  1  0.03063000  0.66651000  0.23084000  1.0
  H  H55  1  0.98686000  0.33494000  0.71032000  1.0
  C  C56  1  0.52602000  0.66219000  0.35001000  1.0
  C  C57  1  0.48470000  0.33962000  0.65182000  1.0
  C  C58  1  0.02602000  0.83780000  0.15000000  1.0
  C  C59  1  0.98468000  0.16038000  0.84819000  1.0
  C  C60  1  0.51736000  0.66972000  0.16878000  1.0
  C  C61  1  0.48750000  0.32747000  0.83430000  1.0
  C  C62  1  0.01736000  0.83027000  0.33123000  1.0
  C  C63  1  0.98750000  0.17253000  0.66569000  1.0
  C  C64  1  0.82307000  0.96156000  0.43993000  1.0
  C  C65  1  0.16520000  0.06699000  0.53035000  1.0
  C  C66  1  0.32309000  0.53843000  0.06009000  1.0
  C  C67  1  0.66523000  0.43303000  0.96962000  1.0
  C  C68  1  0.82891000  0.91410000  0.39497000  1.0
  C  C69  1  0.16232000  0.11435000  0.57553000  1.0
  C  C70  1  0.32893000  0.58588000  0.10505000  1.0
  C  C71  1  0.66233000  0.38568000  0.92445000  1.0
  C  C72  1  0.00587000  0.87999000  0.38069000  1.0
  C  C73  1  0.99095000  0.12561000  0.61321000  1.0
  C  C74  1  0.50589000  0.62001000  0.11932000  1.0
  C  C75  1  0.49095000  0.37440000  0.88678000  1.0
  C  C76  1  0.17933000  0.89542000  0.41545000  1.0
  C  C77  1  0.81832000  0.08763000  0.60206000  1.0
  C  C78  1  0.67934000  0.60458000  0.08455000  1.0
  C  C79  1  0.31831000  0.41237000  0.89794000  1.0
  C  C80  1  0.17607000  0.94224000  0.46114000  1.0
  C  C81  1  0.81889000  0.03954000  0.55755000  1.0
  C  C82  1  0.67607000  0.55777000  0.03885000  1.0
  C  C83  1  0.31888000  0.46046000  0.94246000  1.0
  C  C84  1  0.99768000  0.97672000  0.47395000  1.0
  C  C85  1  0.99333000  0.02789000  0.52119000  1.0
  C  C86  1  0.49769000  0.52328000  0.02605000  1.0
  C  C87  1  0.49333000  0.47212000  0.97880000  1.0
  C  C88  1  0.03806000  0.89186000  0.08862000  1.0
  C  C89  1  0.97643000  0.10499000  0.90834000  1.0
  C  C90  1  0.53807000  0.60813000  0.41139000  1.0
  C  C91  1  0.47643000  0.39500000  0.59167000  1.0
  C  C92  1  0.83171000  0.06755000  0.01964000  1.0
  C  C93  1  0.19586000  0.93189000  0.98001000  1.0
  C  C94  1  0.33171000  0.43244000  0.48038000  1.0
  C  C95  1  0.69586000  0.56811000  0.52000000  1.0
  C  C96  1  0.84508000  0.11542000  0.96165000  1.0
  C  C97  1  0.17776000  0.88302000  0.03717000  1.0
  C  C98  1  0.34509000  0.38458000  0.53835000  1.0
  C  C99  1  0.67775000  0.61697000  0.46283000  1.0
  C  C100  1  0.09173000  0.04478000  0.91371000  1.0
  C  C101  1  0.92517000  0.95239000  0.08383000  1.0
  C  C102  1  0.59173000  0.45521000  0.58629000  1.0
  C  C103  1  0.42517000  0.54761000  0.41618000  1.0
  C  C104  1  0.07821000  0.99333000  0.97273000  1.0
  C  C105  1  0.94347000  0.00491000  0.02581000  1.0
  C  C106  1  0.57821000  0.50666000  0.52728000  1.0
  C  C107  1  0.44347000  0.49509000  0.47420000  1.0
  C  C108  1  0.59980000  0.95852000  0.13713000  1.0
  C  C109  1  0.51799000  0.99591000  0.19250000  1.0
  C  C110  1  0.28920000  0.99472000  0.19586000  1.0
  C  C111  1  0.13064000  0.02559000  0.79856000  1.0
  C  C112  1  0.11328000  0.94950000  0.79000000  1.0
  C  C113  1  0.00461000  0.94060000  0.72458000  1.0
  C  C114  1  0.09979000  0.54147000  0.36289000  1.0
  C  C115  1  0.01798000  0.50407000  0.30753000  1.0
  C  C116  1  0.78920000  0.50524000  0.30419000  1.0
  C  C117  1  0.63065000  0.47440000  0.70145000  1.0
  C  C118  1  0.61327000  0.55050000  0.71000000  1.0
  C  C119  1  0.50462000  0.55940000  0.77541000  1.0
  O  O120  1  0.35287000  0.68973000  0.19109000  1.0
  O  O121  1  0.65629000  0.31075000  0.81215000  1.0
  O  O122  1  0.85285000  0.81026000  0.30892000  1.0
  O  O123  1  0.15630000  0.18925000  0.68784000  1.0
  O  O124  1  0.69426000  0.68271000  0.32395000  1.0
  O  O125  1  0.31599000  0.31649000  0.67548000  1.0
  O  O126  1  0.19426000  0.81728000  0.17606000  1.0
  O  O127  1  0.81599000  0.18350000  0.82453000  1.0
  O  O128  1  0.69153000  0.68843000  0.18533000  1.0
  O  O129  1  0.31532000  0.31059000  0.81440000  1.0
  O  O130  1  0.19152000  0.81157000  0.31468000  1.0
  O  O131  1  0.81534000  0.18940000  0.68560000  1.0
  O  O132  1  0.85354000  0.81660000  0.17129000  1.0
  O  O133  1  0.15528000  0.18148000  0.82507000  1.0
  O  O134  1  0.35356000  0.68339000  0.32872000  1.0
  O  O135  1  0.65528000  0.31851000  0.67493000  1.0
  O  O136  1  0.52364000  0.79295000  0.24649000  1.0
  O  O137  1  0.48601000  0.20689000  0.75621000  1.0
  O  O138  1  0.02364000  0.70704000  0.25352000  1.0
  O  O139  1  0.98602000  0.29310000  0.74380000  1.0
  O  O140  1  0.81664000  0.96612000  0.13839000  1.0
  O  O141  1  0.22002000  0.03183000  0.86346000  1.0
  O  O142  1  0.31664000  0.53388000  0.36163000  1.0
  O  O143  1  0.72003000  0.46816000  0.63655000  1.0
  F  F144  1  0.65252000  0.90353000  0.36369000  1.0
  F  F145  1  0.33352000  0.15089000  0.58051000  1.0
  F  F146  1  0.15254000  0.59645000  0.13633000  1.0
  F  F147  1  0.83354000  0.34914000  0.91945000  1.0
