# generated using pymatgen
data_CuH16C23(NO5)2
_symmetry_space_group_name_H-M   'P 1'
_cell_length_a   9.63810000
_cell_length_b   10.00440000
_cell_length_c   11.08970000
_cell_angle_alpha   89.99840000
_cell_angle_beta   90.82350000
_cell_angle_gamma   89.99980000
_symmetry_Int_Tables_number   1
_chemical_formula_structural   CuH16C23(NO5)2
_chemical_formula_sum   'Cu2 H32 C46 N4 O20'
_cell_volume   1069.19621811
_cell_formula_units_Z   2
loop_
 _symmetry_equiv_pos_site_id
 _symmetry_equiv_pos_as_xyz
  1  'x, y, z'
loop_
 _atom_site_type_symbol
 _atom_site_label
 _atom_site_symmetry_multiplicity
 _atom_site_fract_x
 _atom_site_fract_y
 _atom_site_fract_z
 _atom_site_occupancy
  Cu  Cu0  1  0.29871000  0.57749000  0.96377000  1.0
  Cu  Cu1  1  0.70130000  0.07750000  0.03623000  1.0
  H  H2  1  0.84293000  0.45280000  0.64926000  1.0
  H  H3  1  0.15708000  0.95281000  0.35074000  1.0
  H  H4  1  0.84715000  0.76114000  0.90756000  1.0
  H  H5  1  0.15286000  0.26115000  0.09245000  1.0
  H  H6  1  0.03253000  0.77670000  0.75182000  1.0
  H  H7  1  0.96747000  0.27672000  0.24818000  1.0
  H  H8  1  0.70637000  0.76473000  0.47793000  1.0
  H  H9  1  0.29362000  0.26472000  0.52207000  1.0
  H  H10  1  0.53470000  0.73836000  0.64736000  1.0
  H  H11  1  0.46530000  0.23835000  0.35266000  1.0
  H  H12  1  0.08243000  0.82167000  0.53026000  1.0
  H  H13  1  0.91757000  0.32169000  0.46974000  1.0
  H  H14  1  0.94356000  0.81600000  0.42226000  1.0
  H  H15  1  0.05643000  0.31600000  0.57774000  1.0
  H  H16  1  0.09191000  0.57941000  0.54419000  1.0
  H  H17  1  0.90807000  0.07944000  0.45581000  1.0
  H  H18  1  0.92934000  0.56234000  0.46863000  1.0
  H  H19  1  0.07064000  0.06234000  0.53135000  1.0
  H  H20  1  0.01864000  0.61244000  0.05175000  1.0
  H  H21  1  0.98136000  0.11245000  0.94824000  1.0
  H  H22  1  0.90107000  0.62524000  0.24818000  1.0
  H  H23  1  0.09893000  0.12525000  0.75181000  1.0
  H  H24  1  0.30605000  0.59341000  0.42044000  1.0
  H  H25  1  0.69393000  0.09341000  0.57955000  1.0
  H  H26  1  0.40695000  0.57976000  0.21473000  1.0
  H  H27  1  0.59304000  0.07977000  0.78527000  1.0
  H  H28  1  0.61421000  0.73287000  0.84761000  1.0
  H  H29  1  0.38580000  0.23287000  0.15241000  1.0
  H  H30  1  0.64377000  0.47060000  0.40547000  1.0
  H  H31  1  0.35622000  0.97059000  0.59453000  1.0
  H  H32  1  0.14644000  0.47042000  0.77812000  1.0
  H  H33  1  0.85357000  0.97042000  0.22188000  1.0
  C  C34  1  0.76910000  0.43166000  0.71975000  1.0
  C  C35  1  0.23091000  0.93166000  0.28025000  1.0
  C  C36  1  0.62754000  0.42944000  0.69184000  1.0
  C  C37  1  0.37246000  0.92944000  0.30816000  1.0
  C  C38  1  0.53214000  0.40562000  0.78471000  1.0
  C  C39  1  0.46786000  0.90563000  0.21529000  1.0
  C  C40  1  0.58360000  0.37669000  0.90091000  1.0
  C  C41  1  0.41641000  0.87670000  0.09909000  1.0
  C  C42  1  0.72675000  0.37875000  0.92931000  1.0
  C  C43  1  0.27326000  0.87875000  0.07069000  1.0
  C  C44  1  0.81997000  0.41105000  0.83685000  1.0
  C  C45  1  0.18004000  0.91104000  0.16315000  1.0
  C  C46  1  0.57967000  0.45929000  0.56725000  1.0
  C  C47  1  0.42036000  0.95930000  0.43276000  1.0
  C  C48  1  0.37764000  0.39612000  0.75904000  1.0
  C  C49  1  0.62237000  0.89612000  0.24097000  1.0
  C  C50  1  0.48402000  0.33563000  0.99641000  1.0
  C  C51  1  0.51599000  0.83564000  0.00359000  1.0
  C  C52  1  0.77145000  0.35617000  0.06036000  1.0
  C  C53  1  0.22856000  0.85618000  0.93964000  1.0
  C  C54  1  0.97308000  0.42012000  0.85853000  1.0
  C  C55  1  0.02693000  0.92012000  0.14148000  1.0
  C  C56  1  0.82371000  0.75776000  0.81127000  1.0
  C  C57  1  0.17630000  0.25777000  0.18873000  1.0
  C  C58  1  0.92392000  0.76886000  0.72364000  1.0
  C  C59  1  0.07608000  0.26886000  0.27636000  1.0
  C  C60  1  0.88346000  0.76840000  0.60171000  1.0
  C  C61  1  0.11654000  0.26840000  0.39829000  1.0
  C  C62  1  0.74145000  0.76071000  0.57192000  1.0
  C  C63  1  0.25855000  0.26070000  0.42808000  1.0
  C  C64  1  0.64605000  0.74819000  0.66304000  1.0
  C  C65  1  0.35395000  0.24818000  0.33697000  1.0
  C  C66  1  0.98781000  0.76778000  0.50310000  1.0
  C  C67  1  0.01219000  0.26779000  0.49690000  1.0
  C  C68  1  0.02571000  0.62122000  0.47214000  1.0
  C  C69  1  0.97427000  0.12123000  0.52785000  1.0
  C  C70  1  0.07803000  0.60839000  0.13547000  1.0
  C  C71  1  0.92196000  0.10839000  0.86452000  1.0
  C  C72  1  0.01369000  0.61645000  0.24623000  1.0
  C  C73  1  0.98630000  0.11646000  0.75375000  1.0
  C  C74  1  0.09428000  0.61158000  0.35196000  1.0
  C  C75  1  0.90570000  0.11158000  0.64803000  1.0
  C  C76  1  0.23827000  0.59912000  0.34121000  1.0
  C  C77  1  0.76172000  0.09912000  0.65879000  1.0
  C  C78  1  0.29547000  0.59039000  0.22725000  1.0
  C  C79  1  0.70452000  0.09039000  0.77275000  1.0
  N  N80  1  0.21643000  0.59534000  0.12628000  1.0
  N  N81  1  0.78356000  0.09535000  0.87372000  1.0
  N  N82  1  0.68925000  0.74492000  0.77886000  1.0
  N  N83  1  0.31075000  0.24492000  0.22114000  1.0
  O  O84  1  0.68006000  0.43893000  0.48353000  1.0
  O  O85  1  0.31994000  0.93892000  0.51646000  1.0
  O  O86  1  0.46393000  0.50076000  0.53928000  1.0
  O  O87  1  0.53604000  0.00075000  0.46072000  1.0
  O  O88  1  0.33264000  0.29459000  0.70749000  1.0
  O  O89  1  0.66737000  0.79459000  0.29252000  1.0
  O  O90  1  0.30174000  0.49609000  0.79496000  1.0
  O  O91  1  0.69827000  0.99609000  0.20505000  1.0
  O  O92  1  0.50206000  0.22348000  0.04845000  1.0
  O  O93  1  0.49795000  0.72349000  0.95156000  1.0
  O  O94  1  0.38344000  0.41171000  0.02480000  1.0
  O  O95  1  0.61657000  0.91171000  0.97520000  1.0
  O  O96  1  0.77547000  0.45689000  0.12587000  1.0
  O  O97  1  0.22453000  0.95689000  0.87413000  1.0
  O  O98  1  0.79679000  0.23596000  0.09874000  1.0
  O  O99  1  0.20323000  0.73596000  0.90126000  1.0
  O  O100  1  0.04032000  0.46389000  0.76217000  1.0
  O  O101  1  0.95969000  0.96388000  0.23784000  1.0
  O  O102  1  0.02972000  0.39080000  0.95536000  1.0
  O  O103  1  0.97028000  0.89080000  0.04464000  1.0
