# generated using pymatgen
data_CoH8C13NO5
_symmetry_space_group_name_H-M   'P 1'
_cell_length_a   11.33540000
_cell_length_b   11.41090000
_cell_length_c   13.09080000
_cell_angle_alpha   89.99960000
_cell_angle_beta   69.84300000
_cell_angle_gamma   89.99920000
_symmetry_Int_Tables_number   1
_chemical_formula_structural   CoH8C13NO5
_chemical_formula_sum   'Co4 H32 C52 N4 O20'
_cell_volume   1589.54843944
_cell_formula_units_Z   4
loop_
 _symmetry_equiv_pos_site_id
 _symmetry_equiv_pos_as_xyz
  1  'x, y, z'
loop_
 _atom_site_type_symbol
 _atom_site_label
 _atom_site_symmetry_multiplicity
 _atom_site_fract_x
 _atom_site_fract_y
 _atom_site_fract_z
 _atom_site_occupancy
  Co  Co0  1  0.00000000  0.88489000  0.25000000  1.0
  Co  Co1  1  0.00000000  0.11511000  0.75000000  1.0
  Co  Co2  1  0.00000000  0.00000000  0.00000000  1.0
  Co  Co3  1  0.00000000  0.00000000  0.50000000  1.0
  H  H4  1  0.72497000  0.02987000  0.20012000  1.0
  H  H5  1  0.27503000  0.02987000  0.29989000  1.0
  H  H6  1  0.27503000  0.97013000  0.79988000  1.0
  H  H7  1  0.72497000  0.97013000  0.70011000  1.0
  H  H8  1  0.57655000  0.18736000  0.30932000  1.0
  H  H9  1  0.42345000  0.18736000  0.19069000  1.0
  H  H10  1  0.42345000  0.81263000  0.69068000  1.0
  H  H11  1  0.57655000  0.81265000  0.80930000  1.0
  H  H12  1  0.66692000  0.35354000  0.38665000  1.0
  H  H13  1  0.33308000  0.35354000  0.11336000  1.0
  H  H14  1  0.33307000  0.64645000  0.61336000  1.0
  H  H15  1  0.66692000  0.64646000  0.88664000  1.0
  H  H16  1  0.89915000  0.35359000  0.35338000  1.0
  H  H17  1  0.10086000  0.35359000  0.14663000  1.0
  H  H18  1  0.10085000  0.64640000  0.64663000  1.0
  H  H19  1  0.89914000  0.64641000  0.85338000  1.0
  H  H20  1  0.38115000  0.10523000  0.90002000  1.0
  H  H21  1  0.61885000  0.10523000  0.59997000  1.0
  H  H22  1  0.61885000  0.89477000  0.09998000  1.0
  H  H23  1  0.38115000  0.89477000  0.40002000  1.0
  H  H24  1  0.38869000  0.85255000  0.14006000  1.0
  H  H25  1  0.61131000  0.85255000  0.35994000  1.0
  H  H26  1  0.61131000  0.14745000  0.85994000  1.0
  H  H27  1  0.38869000  0.14745000  0.64005000  1.0
  H  H28  1  0.15651000  0.55533000  0.32030000  1.0
  H  H29  1  0.84350000  0.55533000  0.17970000  1.0
  H  H30  1  0.84349000  0.44467000  0.67970000  1.0
  H  H31  1  0.15650000  0.44467000  0.82030000  1.0
  H  H32  1  0.86215000  0.65381000  0.61462000  1.0
  H  H33  1  0.13785000  0.65381000  0.88538000  1.0
  H  H34  1  0.13785000  0.34620000  0.38538000  1.0
  H  H35  1  0.86215000  0.34619000  0.11462000  1.0
  C  C36  1  0.75399000  0.10408000  0.23776000  1.0
  C  C37  1  0.24602000  0.10407000  0.26224000  1.0
  C  C38  1  0.24601000  0.89592000  0.76224000  1.0
  C  C39  1  0.75399000  0.89593000  0.73775000  1.0
  C  C40  1  0.67668000  0.19275000  0.29594000  1.0
  C  C41  1  0.32332000  0.19274000  0.20407000  1.0
  C  C42  1  0.32332000  0.80725000  0.70406000  1.0
  C  C43  1  0.67668000  0.80726000  0.79593000  1.0
  C  C44  1  0.72692000  0.28425000  0.33895000  1.0
  C  C45  1  0.27309000  0.28425000  0.16106000  1.0
  C  C46  1  0.27308000  0.71575000  0.66106000  1.0
  C  C47  1  0.72691000  0.71576000  0.83895000  1.0
  C  C48  1  0.85549000  0.28492000  0.32083000  1.0
  C  C49  1  0.14452000  0.28491000  0.17917000  1.0
  C  C50  1  0.14451000  0.71508000  0.67917000  1.0
  C  C51  1  0.85548000  0.71509000  0.82083000  1.0
  C  C52  1  0.93167000  0.19474000  0.26233000  1.0
  C  C53  1  0.06834000  0.19474000  0.23767000  1.0
  C  C54  1  0.06834000  0.80526000  0.73767000  1.0
  C  C55  1  0.93166000  0.80526000  0.76233000  1.0
  C  C56  1  0.23376000  0.95421000  0.04963000  1.0
  C  C57  1  0.76624000  0.95421000  0.45037000  1.0
  C  C58  1  0.76624000  0.04579000  0.95037000  1.0
  C  C59  1  0.23376000  0.04579000  0.54963000  1.0
  C  C60  1  0.37226000  0.97534000  0.02153000  1.0
  C  C61  1  0.62774000  0.97534000  0.47847000  1.0
  C  C62  1  0.62774000  0.02466000  0.97847000  1.0
  C  C63  1  0.37226000  0.02466000  0.52153000  1.0
  C  C64  1  0.43454000  0.05877000  0.94253000  1.0
  C  C65  1  0.56546000  0.05877000  0.55747000  1.0
  C  C66  1  0.56546000  0.94123000  0.05747000  1.0
  C  C67  1  0.43454000  0.94123000  0.44253000  1.0
  C  C68  1  0.43892000  0.91670000  0.07874000  1.0
  C  C69  1  0.56108000  0.91670000  0.42125000  1.0
  C  C70  1  0.56108000  0.08330000  0.92126000  1.0
  C  C71  1  0.43892000  0.08330000  0.57874000  1.0
  C  C72  1  0.02330000  0.74240000  0.42802000  1.0
  C  C73  1  0.97670000  0.74240000  0.07198000  1.0
  C  C74  1  0.97670000  0.25760000  0.57198000  1.0
  C  C75  1  0.02330000  0.25760000  0.92802000  1.0
  C  C76  1  0.01160000  0.61697000  0.46456000  1.0
  C  C77  1  0.98840000  0.61697000  0.03544000  1.0
  C  C78  1  0.98840000  0.38303000  0.53544000  1.0
  C  C79  1  0.01160000  0.38303000  0.96456000  1.0
  C  C80  1  0.08863000  0.53010000  0.39899000  1.0
  C  C81  1  0.91137000  0.53010000  0.10101000  1.0
  C  C82  1  0.91137000  0.46990000  0.60101000  1.0
  C  C83  1  0.08863000  0.46990000  0.89899000  1.0
  C  C84  1  0.92262000  0.58569000  0.56535000  1.0
  C  C85  1  0.07738000  0.58569000  0.93466000  1.0
  C  C86  1  0.07738000  0.41432000  0.43465000  1.0
  C  C87  1  0.92263000  0.41432000  0.06535000  1.0
  N  N88  1  0.87860000  0.10582000  0.22251000  1.0
  N  N89  1  0.12140000  0.10582000  0.27749000  1.0
  N  N90  1  0.12140000  0.89418000  0.77749000  1.0
  N  N91  1  0.87860000  0.89418000  0.72251000  1.0
  O  O92  1  0.95107000  0.01897000  0.16726000  1.0
  O  O93  1  0.04893000  0.01897000  0.33274000  1.0
  O  O94  1  0.04893000  0.98103000  0.83274000  1.0
  O  O95  1  0.95108000  0.98103000  0.66726000  1.0
  O  O96  1  0.18261000  0.00348000  0.98764000  1.0
  O  O97  1  0.81739000  0.00349000  0.51236000  1.0
  O  O98  1  0.81739000  0.99652000  0.01236000  1.0
  O  O99  1  0.18261000  0.99651000  0.48764000  1.0
  O  O100  1  0.17956000  0.89189000  0.13299000  1.0
  O  O101  1  0.82044000  0.89189000  0.36702000  1.0
  O  O102  1  0.82044000  0.10811000  0.86702000  1.0
  O  O103  1  0.17956000  0.10811000  0.63298000  1.0
  O  O104  1  0.06440000  0.76042000  0.32578000  1.0
  O  O105  1  0.93560000  0.76042000  0.17422000  1.0
  O  O106  1  0.93560000  0.23958000  0.67422000  1.0
  O  O107  1  0.06439000  0.23959000  0.82578000  1.0
  O  O108  1  0.99136000  0.81929000  0.50295000  1.0
  O  O109  1  0.00864000  0.81929000  0.99706000  1.0
  O  O110  1  0.00864000  0.18071000  0.49705000  1.0
  O  O111  1  0.99136000  0.18071000  0.00294000  1.0
