# generated using pymatgen
data_AlH18C27(NO2)3
_symmetry_space_group_name_H-M   'P 1'
_cell_length_a   4.01038000
_cell_length_b   27.74700000
_cell_length_c   27.80574925
_cell_angle_alpha   119.92143336
_cell_angle_beta   90.58378869
_cell_angle_gamma   90.00550000
_symmetry_Int_Tables_number   1
_chemical_formula_structural   AlH18C27(NO2)3
_chemical_formula_sum   'Al3 H54 C81 N9 O18'
_cell_volume   2681.51221537
_cell_formula_units_Z   3
loop_
 _symmetry_equiv_pos_site_id
 _symmetry_equiv_pos_as_xyz
  1  'x, y, z'
loop_
 _atom_site_type_symbol
 _atom_site_label
 _atom_site_symmetry_multiplicity
 _atom_site_fract_x
 _atom_site_fract_y
 _atom_site_fract_z
 _atom_site_occupancy
  Al  Al0  1  0.99147000  0.99903000  0.50062000  1.0
  Al  Al1  1  0.96070000  0.66624000  0.83316000  1.0
  Al  Al2  1  0.05160000  0.33277000  0.16637000  1.0
  H  H3  1  0.52551000  0.99883000  0.92215000  1.0
  H  H4  1  0.51592000  0.08997000  0.83462000  1.0
  H  H5  1  0.49135000  0.91121000  0.74380000  1.0
  H  H6  1  0.78028000  0.83357000  0.90439000  1.0
  H  H7  1  0.80587000  0.92340000  0.90594000  1.0
  H  H8  1  0.16926000  0.85519000  0.76051000  1.0
  H  H9  1  0.23504000  0.07284000  0.98013000  1.0
  H  H10  1  0.85354000  0.23553000  0.99746000  1.0
  H  H11  1  0.85229000  0.14696000  0.90798000  1.0
  H  H12  1  0.81092000  0.07439000  0.76198000  1.0
  H  H13  1  0.18536000  0.93143000  0.59823000  1.0
  H  H14  1  0.18367000  0.92806000  0.68567000  1.0
  H  H15  1  0.49955000  0.57730000  0.07823000  1.0
  H  H16  1  0.51306000  0.75595000  0.16585000  1.0
  H  H17  1  0.52694000  0.66789000  0.25661000  1.0
  H  H18  1  0.23364000  0.42991000  0.09512000  1.0
  H  H19  1  0.21136000  0.51859000  0.09433000  1.0
  H  H20  1  0.84710000  0.59447000  0.23990000  1.0
  H  H21  1  0.79510000  0.59359000  0.02026000  1.0
  H  H22  1  0.16996000  0.73831000  0.00281000  1.0
  H  H23  1  0.17547000  0.73956000  0.09244000  1.0
  H  H24  1  0.20803000  0.81230000  0.23793000  1.0
  H  H25  1  0.81720000  0.83381000  0.40333000  1.0
  H  H26  1  0.83638000  0.74358000  0.31537000  1.0
  H  H27  1  0.51244000  0.42284000  0.50107000  1.0
  H  H28  1  0.49301000  0.24428000  0.40988000  1.0
  H  H29  1  0.47087000  0.33134000  0.58821000  1.0
  H  H30  1  0.77122000  0.56967000  0.66567000  1.0
  H  H31  1  0.79040000  0.48142000  0.57635000  1.0
  H  H32  1  0.16253000  0.40456000  0.64455000  1.0
  H  H33  1  0.22282000  0.40698000  0.42544000  1.0
  H  H34  1  0.85137000  0.26194000  0.26650000  1.0
  H  H35  1  0.84000000  0.26073000  0.35487000  1.0
  H  H36  1  0.78574000  0.18712000  0.42575000  1.0
  H  H37  1  0.17618000  0.16503000  0.56750000  1.0
  H  H38  1  0.16595000  0.25592000  0.57078000  1.0
  H  H39  1  0.99769000  0.72957000  0.76024000  1.0
  H  H40  1  0.94864000  0.76602000  0.72783000  1.0
  H  H41  1  0.09995000  0.19844000  0.10565000  1.0
  H  H42  1  0.04599000  0.12973000  0.07015000  1.0
  H  H43  1  0.89649000  0.08183000  0.63779000  1.0
  H  H44  1  0.02033000  0.10804000  0.70579000  1.0
  H  H45  1  0.01818000  0.46875000  0.23884000  1.0
  H  H46  1  0.06123000  0.53771000  0.27261000  1.0
  H  H47  1  0.93039000  0.59383000  0.89513000  1.0
  H  H48  1  0.97988000  0.56004000  0.93015000  1.0
  H  H49  1  0.09313000  0.94203000  0.36256000  1.0
  H  H50  1  0.98376000  0.90085000  0.29389000  1.0
  H  H51  1  0.00035000  0.52981000  0.76943000  1.0
  H  H52  1  0.95415000  0.46092000  0.73381000  1.0
  H  H53  1  0.09225000  0.40646000  0.29981000  1.0
  H  H54  1  0.04516000  0.44077000  0.36829000  1.0
  H  H55  1  0.88580000  0.05598000  0.41919000  1.0
  H  H56  1  0.00119000  0.09777000  0.39274000  1.0
  C  C57  1  0.48864000  0.07282000  0.49798000  1.0
  C  C58  1  0.49475000  0.00169000  0.57588000  1.0
  C  C59  1  0.49085000  0.92511000  0.42570000  1.0
  C  C60  1  0.45924000  0.74009000  0.83194000  1.0
  C  C61  1  0.46889000  0.66625000  0.90776000  1.0
  C  C62  1  0.45628000  0.59086000  0.75904000  1.0
  C  C63  1  0.54800000  0.25832000  0.09228000  1.0
  C  C64  1  0.55277000  0.40795000  0.16722000  1.0
  C  C65  1  0.55159000  0.33353000  0.24160000  1.0
  C  C66  1  0.53101000  0.05046000  0.88444000  1.0
  C  C67  1  0.52051000  0.99938000  0.88321000  1.0
  C  C68  1  0.50084000  0.94889000  0.83302000  1.0
  C  C69  1  0.49371000  0.95019000  0.78325000  1.0
  C  C70  1  0.50413000  0.00060000  0.78305000  1.0
  C  C71  1  0.52135000  0.05039000  0.83403000  1.0
  C  C72  1  0.64182000  0.83897000  0.87345000  1.0
  C  C73  1  0.65412000  0.88957000  0.87451000  1.0
  C  C74  1  0.48988000  0.89556000  0.83288000  1.0
  C  C75  1  0.31227000  0.85019000  0.79135000  1.0
  C  C76  1  0.28997000  0.79920000  0.79031000  1.0
  C  C77  1  0.46273000  0.79391000  0.83196000  1.0
  C  C78  1  0.38001000  0.10798000  0.98411000  1.0
  C  C79  1  0.37342000  0.15800000  0.03492000  1.0
  C  C80  1  0.54501000  0.20434000  0.03889000  1.0
  C  C81  1  0.71305000  0.19985000  0.99303000  1.0
  C  C82  1  0.71071000  0.15015000  0.94266000  1.0
  C  C83  1  0.54240000  0.10343000  0.93774000  1.0
  C  C84  1  0.66677000  0.04333000  0.72645000  1.0
  C  C85  1  0.67685000  0.04534000  0.67688000  1.0
  C  C86  1  0.49996000  0.00354000  0.62970000  1.0
  C  C87  1  0.32561000  0.96208000  0.63442000  1.0
  C  C88  1  0.32798000  0.95991000  0.68306000  1.0
  C  C89  1  0.49944000  0.00132000  0.73027000  1.0
  C  C90  1  0.49703000  0.66665000  0.11595000  1.0
  C  C91  1  0.50460000  0.61677000  0.11718000  1.0
  C  C92  1  0.52063000  0.61641000  0.16738000  1.0
  C  C93  1  0.52758000  0.66746000  0.21718000  1.0
  C  C94  1  0.51985000  0.71809000  0.21740000  1.0
  C  C95  1  0.50627000  0.71693000  0.16640000  1.0
  C  C96  1  0.37297000  0.46601000  0.12625000  1.0
  C  C97  1  0.36226000  0.51580000  0.12563000  1.0
  C  C98  1  0.52747000  0.56315000  0.16743000  1.0
  C  C99  1  0.70350000  0.55884000  0.20883000  1.0
  C  C100  1  0.72402000  0.50867000  0.20948000  1.0
  C  C101  1  0.55127000  0.46193000  0.16751000  1.0
  C  C102  1  0.64879000  0.62463000  0.01626000  1.0
  C  C103  1  0.65339000  0.62367000  0.96534000  1.0
  C  C104  1  0.47855000  0.66574000  0.96124000  1.0
  C  C105  1  0.31207000  0.70720000  0.00724000  1.0
  C  C106  1  0.31695000  0.70809000  0.05772000  1.0
  C  C107  1  0.48624000  0.66637000  0.06265000  1.0
  C  C108  1  0.34875000  0.81695000  0.27384000  1.0
  C  C109  1  0.32863000  0.86811000  0.32365000  1.0
  C  C110  1  0.49939000  0.87366000  0.37139000  1.0
  C  C111  1  0.68034000  0.82807000  0.36677000  1.0
  C  C112  1  0.68773000  0.77758000  0.31783000  1.0
  C  C113  1  0.51978000  0.77151000  0.27024000  1.0
  C  C114  1  0.51330000  0.33356000  0.44949000  1.0
  C  C115  1  0.50442000  0.38326000  0.50048000  1.0
  C  C116  1  0.48389000  0.38331000  0.55080000  1.0
  C  C117  1  0.47332000  0.33207000  0.54936000  1.0
  C  C118  1  0.48159000  0.28161000  0.49904000  1.0
  C  C119  1  0.49966000  0.28310000  0.44945000  1.0
  C  C120  1  0.63311000  0.53347000  0.66044000  1.0
  C  C121  1  0.64180000  0.48388000  0.61006000  1.0
  C  C122  1  0.47774000  0.43637000  0.60408000  1.0
  C  C123  1  0.30526000  0.44027000  0.64940000  1.0
  C  C124  1  0.28734000  0.49020000  0.70021000  1.0
  C  C125  1  0.45802000  0.53714000  0.70535000  1.0
  C  C126  1  0.37082000  0.37597000  0.39121000  1.0
  C  C127  1  0.36969000  0.37694000  0.34125000  1.0
  C  C128  1  0.54517000  0.33474000  0.29593000  1.0
  C  C129  1  0.70948000  0.29324000  0.30137000  1.0
  C  C130  1  0.70118000  0.29237000  0.35096000  1.0
  C  C131  1  0.53017000  0.33409000  0.39668000  1.0
  C  C132  1  0.64453000  0.18233000  0.45649000  1.0
  C  C133  1  0.65934000  0.13072000  0.45456000  1.0
  C  C134  1  0.48801000  0.12492000  0.49606000  1.0
  C  C135  1  0.31339000  0.17086000  0.53714000  1.0
  C  C136  1  0.31077000  0.22173000  0.53924000  1.0
  C  C137  1  0.47788000  0.22795000  0.49819000  1.0
  N  N138  1  0.11362000  0.75463000  0.74830000  1.0
  N  N139  1  0.21167000  0.16121000  0.08047000  1.0
  N  N140  1  0.84111000  0.08853000  0.67629000  1.0
  N  N141  1  0.89914000  0.50559000  0.25130000  1.0
  N  N142  1  0.81590000  0.58145000  0.91985000  1.0
  N  N143  1  0.15929000  0.91145000  0.32407000  1.0
  N  N144  1  0.11698000  0.49291000  0.74483000  1.0
  N  N145  1  0.20858000  0.41919000  0.33712000  1.0
  N  N146  1  0.82421000  0.08726000  0.41173000  1.0
  O  O147  1  0.71982000  0.93349000  0.46148000  1.0
  O  O148  1  0.72160000  0.03722000  0.47227000  1.0
  O  O149  1  0.72776000  0.02752000  0.56589000  1.0
  O  O150  1  0.25132000  0.95966000  0.43478000  1.0
  O  O151  1  0.26002000  0.97459000  0.54124000  1.0
  O  O152  1  0.25832000  0.06506000  0.52502000  1.0
  O  O153  1  0.69364000  0.60006000  0.79385000  1.0
  O  O154  1  0.69253000  0.70533000  0.80634000  1.0
  O  O155  1  0.70113000  0.69193000  0.89862000  1.0
  O  O156  1  0.21932000  0.62469000  0.76753000  1.0
  O  O157  1  0.22788000  0.64086000  0.87379000  1.0
  O  O158  1  0.22490000  0.73154000  0.85745000  1.0
  O  O159  1  0.79021000  0.35850000  0.23253000  1.0
  O  O160  1  0.78600000  0.26724000  0.12687000  1.0
  O  O161  1  0.78629000  0.37371000  0.14176000  1.0
  O  O162  1  0.31658000  0.30755000  0.20685000  1.0
  O  O163  1  0.31779000  0.39887000  0.19264000  1.0
  O  O164  1  0.31315000  0.29255000  0.10095000  1.0
