# generated using pymatgen
data_FeHgH16C24S4(BrN)2
_symmetry_space_group_name_H-M   'P 1'
_cell_length_a   9.82771000
_cell_length_b   9.82818000
_cell_length_c   14.68095678
_cell_angle_alpha   104.20797605
_cell_angle_beta   106.04867724
_cell_angle_gamma   102.73000000
_symmetry_Int_Tables_number   1
_chemical_formula_structural   FeHgH16C24S4(BrN)2
_chemical_formula_sum   'Fe2 Hg2 H32 C48 S8 Br4 N4'
_cell_volume   1256.25756808
_cell_formula_units_Z   2
loop_
 _symmetry_equiv_pos_site_id
 _symmetry_equiv_pos_as_xyz
  1  'x, y, z'
loop_
 _atom_site_type_symbol
 _atom_site_label
 _atom_site_symmetry_multiplicity
 _atom_site_fract_x
 _atom_site_fract_y
 _atom_site_fract_z
 _atom_site_occupancy
  Fe  Fe0  1  0.00000000  0.00000000  0.00000000  1.0
  Fe  Fe1  1  0.50000000  0.00000000  0.50000000  1.0
  Hg  Hg2  1  0.29951000  0.54939000  0.75004000  1.0
  Hg  Hg3  1  0.70049000  0.45060000  0.24996000  1.0
  H  H4  1  0.83542000  0.14901000  0.09256000  1.0
  H  H5  1  0.55647000  0.74294000  0.40751000  1.0
  H  H6  1  0.16458000  0.85098000  0.90744000  1.0
  H  H7  1  0.44353000  0.25706000  0.59249000  1.0
  H  H8  1  0.07607000  0.31163000  0.06792000  1.0
  H  H9  1  0.74358000  0.00819000  0.43190000  1.0
  H  H10  1  0.92393000  0.68835000  0.93207000  1.0
  H  H11  1  0.25642000  0.99181000  0.56810000  1.0
  H  H12  1  0.08072000  0.17492000  0.88565000  1.0
  H  H13  1  0.78919000  0.19533000  0.61415000  1.0
  H  H14  1  0.91927000  0.82506000  0.11434000  1.0
  H  H15  1  0.21081000  0.80467000  0.38585000  1.0
  H  H16  1  0.84199000  0.92709000  0.79524000  1.0
  H  H17  1  0.63202000  0.04714000  0.70475000  1.0
  H  H18  1  0.15800000  0.07290000  0.20476000  1.0
  H  H19  1  0.36798000  0.95286000  0.29525000  1.0
  H  H20  1  0.30260000  0.26045000  0.79225000  1.0
  H  H21  1  0.96824000  0.51022000  0.70753000  1.0
  H  H22  1  0.69739000  0.73955000  0.20775000  1.0
  H  H23  1  0.03176000  0.48978000  0.29247000  1.0
  H  H24  1  0.04714000  0.14659000  0.66584000  1.0
  H  H25  1  0.98096000  0.38140000  0.83405000  1.0
  H  H26  1  0.95286000  0.85342000  0.33416000  1.0
  H  H27  1  0.01904000  0.61860000  0.16595000  1.0
  H  H28  1  0.93433000  0.87413000  0.59632000  1.0
  H  H29  1  0.77821000  0.33838000  0.90377000  1.0
  H  H30  1  0.06567000  0.12586000  0.40368000  1.0
  H  H31  1  0.22179000  0.66162000  0.09623000  1.0
  H  H32  1  0.07436000  0.70925000  0.65283000  1.0
  H  H33  1  0.55686000  0.42200000  0.84734000  1.0
  H  H34  1  0.92564000  0.29075000  0.34717000  1.0
  H  H35  1  0.44314000  0.57801000  0.15266000  1.0
  C  C36  1  0.79027000  0.99973000  0.93672000  1.0
  C  C37  1  0.56319000  0.85379000  0.56337000  1.0
  C  C38  1  0.20973000  0.00026000  0.06328000  1.0
  C  C39  1  0.43681000  0.14621000  0.43663000  1.0
  C  C40  1  0.86736000  0.12585000  0.02667000  1.0
  C  C41  1  0.59923000  0.84084000  0.47336000  1.0
  C  C42  1  0.13264000  0.87415000  0.97333000  1.0
  C  C43  1  0.40077000  0.15916000  0.52664000  1.0
  C  C44  1  0.99356000  0.21103000  0.01315000  1.0
  C  C45  1  0.69780000  0.98056000  0.48671000  1.0
  C  C46  1  0.00643000  0.78896000  0.98684000  1.0
  C  C47  1  0.30219000  0.01943000  0.51328000  1.0
  C  C48  1  0.99553000  0.13886000  0.91609000  1.0
  C  C49  1  0.72274000  0.07970000  0.58378000  1.0
  C  C50  1  0.00447000  0.86114000  0.08391000  1.0
  C  C51  1  0.27726000  0.92030000  0.41622000  1.0
  C  C52  1  0.87043000  0.00806000  0.86830000  1.0
  C  C53  1  0.63990000  0.00245000  0.63168000  1.0
  C  C54  1  0.12957000  0.99193000  0.13170000  1.0
  C  C55  1  0.36009000  0.99754000  0.36831000  1.0
  C  C56  1  0.49247000  0.90884000  0.85593000  1.0
  C  C57  1  0.55309000  0.63666000  0.64407000  1.0
  C  C58  1  0.50754000  0.09116000  0.14408000  1.0
  C  C59  1  0.44691000  0.36334000  0.35593000  1.0
  C  C60  1  0.33205000  0.04819000  0.79253000  1.0
  C  C61  1  0.75592000  0.53976000  0.70747000  1.0
  C  C62  1  0.66795000  0.95181000  0.20747000  1.0
  C  C63  1  0.24408000  0.46024000  0.29253000  1.0
  C  C64  1  0.25368000  0.14090000  0.76155000  1.0
  C  C65  1  0.87950000  0.49220000  0.73834000  1.0
  C  C66  1  0.74632000  0.85910000  0.23845000  1.0
  C  C67  1  0.12050000  0.50780000  0.26166000  1.0
  C  C68  1  0.10933000  0.07611000  0.69196000  1.0
  C  C69  1  0.88440000  0.41756000  0.80798000  1.0
  C  C70  1  0.89067000  0.92389000  0.30804000  1.0
  C  C71  1  0.11560000  0.58244000  0.19202000  1.0
  C  C72  1  0.04526000  0.92200000  0.65332000  1.0
  C  C73  1  0.76911000  0.39235000  0.84679000  1.0
  C  C74  1  0.95474000  0.07800000  0.34668000  1.0
  C  C75  1  0.23089000  0.60765000  0.15321000  1.0
  C  C76  1  0.12241000  0.82905000  0.68482000  1.0
  C  C77  1  0.64469000  0.43807000  0.81535000  1.0
  C  C78  1  0.87759000  0.17095000  0.31518000  1.0
  C  C79  1  0.35531000  0.56194000  0.18465000  1.0
  C  C80  1  0.26682000  0.89253000  0.75608000  1.0
  C  C81  1  0.63681000  0.51113000  0.74405000  1.0
  C  C82  1  0.73318000  0.10747000  0.24392000  1.0
  C  C83  1  0.36319000  0.48887000  0.25595000  1.0
  S  S84  1  0.51338000  0.09536000  0.87426000  1.0
  S  S85  1  0.72125000  0.63925000  0.62568000  1.0
  S  S86  1  0.48662000  0.90464000  0.12574000  1.0
  S  S87  1  0.27875000  0.36075000  0.37432000  1.0
  S  S88  1  0.63637000  0.85098000  0.91743000  1.0
  S  S89  1  0.43373000  0.71916000  0.58264000  1.0
  S  S90  1  0.36362000  0.14902000  0.08257000  1.0
  S  S91  1  0.56627000  0.28084000  0.41736000  1.0
  Br  Br92  1  0.32291000  0.52955000  0.92284000  1.0
  Br  Br93  1  0.10684000  0.40003000  0.57726000  1.0
  Br  Br94  1  0.67710000  0.47045000  0.07716000  1.0
  Br  Br95  1  0.89316000  0.59997000  0.42274000  1.0
  N  N96  1  0.36079000  0.81780000  0.79469000  1.0
  N  N97  1  0.52343000  0.56641000  0.70543000  1.0
  N  N98  1  0.63921000  0.18220000  0.20531000  1.0
  N  N99  1  0.47657000  0.43359000  0.29457000  1.0
