# generated using pymatgen
data_CsH17C17SO9
_symmetry_space_group_name_H-M   'P 1'
_cell_length_a   6.83662000
_cell_length_b   9.80224245
_cell_length_c   15.17590000
_cell_angle_alpha   105.96822773
_cell_angle_beta   93.89720000
_cell_angle_gamma   108.64769038
_symmetry_Int_Tables_number   1
_chemical_formula_structural   CsH17C17SO9
_chemical_formula_sum   'Cs2 H34 C34 S2 O18'
_cell_volume   912.75597797
_cell_formula_units_Z   2
loop_
 _symmetry_equiv_pos_site_id
 _symmetry_equiv_pos_as_xyz
  1  'x, y, z'
loop_
 _atom_site_type_symbol
 _atom_site_label
 _atom_site_symmetry_multiplicity
 _atom_site_fract_x
 _atom_site_fract_y
 _atom_site_fract_z
 _atom_site_occupancy
  Cs  Cs0  1  0.29211000  0.25302000  0.99444000  1.0
  Cs  Cs1  1  0.70789000  0.74698000  0.00557000  1.0
  H  H2  1  0.95141000  0.39066000  0.27491000  1.0
  H  H3  1  0.04859000  0.60934000  0.72510000  1.0
  H  H4  1  0.33599000  0.55318000  0.30458000  1.0
  H  H5  1  0.66402000  0.44682000  0.69542000  1.0
  H  H6  1  0.42652000  0.41923000  0.41005000  1.0
  H  H7  1  0.57347000  0.58077000  0.58995000  1.0
  H  H8  1  0.81207000  0.49685000  0.53673000  1.0
  H  H9  1  0.18794000  0.50316000  0.46327000  1.0
  H  H10  1  0.86333000  0.17202000  0.68258000  1.0
  H  H11  1  0.13667000  0.82798000  0.31742000  1.0
  H  H12  1  0.71805000  0.73664000  0.47127000  1.0
  H  H13  1  0.28195000  0.26336000  0.52873000  1.0
  H  H14  1  0.65791000  0.85136000  0.34875000  1.0
  H  H15  1  0.34211000  0.14865000  0.65124000  1.0
  H  H16  1  0.77111000  0.01405000  0.76405000  1.0
  H  H17  1  0.22889000  0.98595000  0.23595000  1.0
  H  H18  1  0.03850000  0.06049000  0.74964000  1.0
  H  H19  1  0.96150000  0.93951000  0.25036000  1.0
  H  H20  1  0.96084000  0.93216000  0.87305000  1.0
  H  H21  1  0.03916000  0.06784000  0.12695000  1.0
  H  H22  1  0.04914000  0.82649000  0.78044000  1.0
  H  H23  1  0.95087000  0.17351000  0.21956000  1.0
  H  H24  1  0.77684000  0.76963000  0.78869000  1.0
  H  H25  1  0.22317000  0.23037000  0.21131000  1.0
  H  H26  1  0.36909000  0.58225000  0.16436000  1.0
  H  H27  1  0.63091000  0.41775000  0.83565000  1.0
  H  H28  1  0.68945000  0.06708000  0.95055000  1.0
  H  H29  1  0.31055000  0.93292000  0.04945000  1.0
  H  H30  1  0.63142000  0.10989000  0.08895000  1.0
  H  H31  1  0.36858000  0.89011000  0.91104000  1.0
  H  H32  1  0.80364000  0.24185000  0.01022000  1.0
  H  H33  1  0.19636000  0.75815000  0.98978000  1.0
  H  H34  1  0.56157000  0.09259000  0.18548000  1.0
  H  H35  1  0.43844000  0.90741000  0.81452000  1.0
  C  C36  1  0.81460000  0.42400000  0.28235000  1.0
  C  C37  1  0.18539000  0.57599000  0.71765000  1.0
  C  C38  1  0.76501000  0.49803000  0.22235000  1.0
  C  C39  1  0.23499000  0.50197000  0.77765000  1.0
  C  C40  1  0.58551000  0.54001000  0.22808000  1.0
  C  C41  1  0.41450000  0.46000000  0.77192000  1.0
  C  C42  1  0.47128000  0.51753000  0.29928000  1.0
  C  C43  1  0.52872000  0.48247000  0.70072000  1.0
  C  C44  1  0.52375000  0.44426000  0.35856000  1.0
  C  C45  1  0.47625000  0.55574000  0.64144000  1.0
  C  C46  1  0.69273000  0.39293000  0.34991000  1.0
  C  C47  1  0.30727000  0.60707000  0.65009000  1.0
  C  C48  1  0.73217000  0.30659000  0.41111000  1.0
  C  C49  1  0.26783000  0.69341000  0.58889000  1.0
  C  C50  1  0.78441000  0.37700000  0.50455000  1.0
  C  C51  1  0.21559000  0.62301000  0.49545000  1.0
  C  C52  1  0.78512000  0.15939000  0.54031000  1.0
  C  C53  1  0.21488000  0.84061000  0.45969000  1.0
  C  C54  1  0.81850000  0.09903000  0.61055000  1.0
  C  C55  1  0.18151000  0.90098000  0.38945000  1.0
  C  C56  1  0.79531000  0.94576000  0.58449000  1.0
  C  C57  1  0.20469000  0.05424000  0.41551000  1.0
  C  C58  1  0.73564000  0.85596000  0.48967000  1.0
  C  C59  1  0.26435000  0.14404000  0.51033000  1.0
  C  C60  1  0.70301000  0.91918000  0.42202000  1.0
  C  C61  1  0.29699000  0.08082000  0.57798000  1.0
  C  C62  1  0.72898000  0.07443000  0.44545000  1.0
  C  C63  1  0.27102000  0.92557000  0.55455000  1.0
  C  C64  1  0.69741000  0.14448000  0.37503000  1.0
  C  C65  1  0.30259000  0.85552000  0.62497000  1.0
  C  C66  1  0.89200000  0.96622000  0.74290000  1.0
  C  C67  1  0.10800000  0.03377000  0.25710000  1.0
  C  C68  1  0.92092000  0.86678000  0.79887000  1.0
  C  C69  1  0.07909000  0.13322000  0.20113000  1.0
  S  S70  1  0.92232000  0.53044000  0.13527000  1.0
  S  S71  1  0.07767000  0.46955000  0.86473000  1.0
  O  O72  1  0.98654000  0.69255000  0.14681000  1.0
  O  O73  1  0.01345000  0.30744000  0.85319000  1.0
  O  O74  1  0.78407000  0.43358000  0.04560000  1.0
  O  O75  1  0.21592000  0.56641000  0.95441000  1.0
  O  O76  1  0.10033000  0.48190000  0.15372000  1.0
  O  O77  1  0.89966000  0.51809000  0.84628000  1.0
  O  O78  1  0.52121000  0.59810000  0.16423000  1.0
  O  O79  1  0.47879000  0.40190000  0.83577000  1.0
  O  O80  1  0.64048000  0.06901000  0.29029000  1.0
  O  O81  1  0.35953000  0.93100000  0.70971000  1.0
  O  O82  1  0.81161000  0.31102000  0.56919000  1.0
  O  O83  1  0.18839000  0.68898000  0.43081000  1.0
  O  O84  1  0.82748000  0.87430000  0.64558000  1.0
  O  O85  1  0.17252000  0.12570000  0.35442000  1.0
  O  O86  1  0.79608000  0.13801000  0.00665000  1.0
  O  O87  1  0.20392000  0.86199000  0.99335000  1.0
  O  O88  1  0.50848000  0.08480000  0.12108000  1.0
  O  O89  1  0.49152000  0.91520000  0.87892000  1.0
