# generated using pymatgen
data_ZnH16C16S(NO)4
_symmetry_space_group_name_H-M   'P 1'
_cell_length_a   9.08446000
_cell_length_b   14.00460000
_cell_length_c   17.76190000
_cell_angle_alpha   89.71130000
_cell_angle_beta   78.22100000
_cell_angle_gamma   88.52260000
_symmetry_Int_Tables_number   1
_chemical_formula_structural   ZnH16C16S(NO)4
_chemical_formula_sum   'Zn4 H64 C64 S4 N16 O16'
_cell_volume   2211.42351512
_cell_formula_units_Z   4
loop_
 _symmetry_equiv_pos_site_id
 _symmetry_equiv_pos_as_xyz
  1  'x, y, z'
loop_
 _atom_site_type_symbol
 _atom_site_label
 _atom_site_symmetry_multiplicity
 _atom_site_fract_x
 _atom_site_fract_y
 _atom_site_fract_z
 _atom_site_occupancy
  Zn  Zn0  1  0.15048000  0.25734000  0.40517000  1.0
  Zn  Zn1  1  0.84953000  0.74266000  0.59484000  1.0
  Zn  Zn2  1  0.86770000  0.73698000  0.06624000  1.0
  Zn  Zn3  1  0.13230000  0.26303000  0.93376000  1.0
  H  H4  1  0.45327000  0.94242000  0.09745000  1.0
  H  H5  1  0.54671000  0.05758000  0.90255000  1.0
  H  H6  1  0.25647000  0.05881000  0.18758000  1.0
  H  H7  1  0.74351000  0.94119000  0.81242000  1.0
  H  H8  1  0.69895000  0.81971000  0.94070000  1.0
  H  H9  1  0.30104000  0.18029000  0.05930000  1.0
  H  H10  1  0.77562000  0.75652000  0.78754000  1.0
  H  H11  1  0.22436000  0.24349000  0.21246000  1.0
  H  H12  1  0.00979000  0.58661000  0.92433000  1.0
  H  H13  1  0.99021000  0.41340000  0.07566000  1.0
  H  H14  1  0.10989000  0.61924000  0.76164000  1.0
  H  H15  1  0.89009000  0.38077000  0.23835000  1.0
  H  H16  1  0.94722000  0.63183000  0.72116000  1.0
  H  H17  1  0.05276000  0.36817000  0.27883000  1.0
  H  H18  1  0.84753000  0.48084000  0.78251000  1.0
  H  H19  1  0.15246000  0.51916000  0.21749000  1.0
  H  H20  1  0.00132000  0.46890000  0.82980000  1.0
  H  H21  1  0.99867000  0.53111000  0.17020000  1.0
  H  H22  1  0.02701000  0.47462000  0.65504000  1.0
  H  H23  1  0.97300000  0.52538000  0.34496000  1.0
  H  H24  1  0.18110000  0.46149000  0.70179000  1.0
  H  H25  1  0.81889000  0.53852000  0.29822000  1.0
  H  H26  1  0.92179000  0.32143000  0.72278000  1.0
  H  H27  1  0.07821000  0.67857000  0.27722000  1.0
  H  H28  1  0.09280000  0.30639000  0.75598000  1.0
  H  H29  1  0.90721000  0.69362000  0.24402000  1.0
  H  H30  1  0.24368000  0.18054000  0.68023000  1.0
  H  H31  1  0.75633000  0.81947000  0.31978000  1.0
  H  H32  1  0.32046000  0.13807000  0.52140000  1.0
  H  H33  1  0.67954000  0.86192000  0.47861000  1.0
  H  H34  1  0.01866000  0.37578000  0.55727000  1.0
  H  H35  1  0.98135000  0.62422000  0.44273000  1.0
  H  H36  1  0.08508000  0.83304000  0.16749000  1.0
  H  H37  1  0.91493000  0.16696000  0.83251000  1.0
  H  H38  1  0.38680000  0.76892000  0.14570000  1.0
  H  H39  1  0.61320000  0.23108000  0.85430000  1.0
  H  H40  1  0.17841000  0.63601000  0.98337000  1.0
  H  H41  1  0.82159000  0.36398000  0.01663000  1.0
  H  H42  1  0.54402000  0.65320000  0.05528000  1.0
  H  H43  1  0.45598000  0.34679000  0.94472000  1.0
  H  H44  1  0.49731000  0.65835000  0.96328000  1.0
  H  H45  1  0.50268000  0.34164000  0.03672000  1.0
  H  H46  1  0.41568000  0.50108000  0.08455000  1.0
  H  H47  1  0.58432000  0.49891000  0.91545000  1.0
  H  H48  1  0.33130000  0.51218000  0.00279000  1.0
  H  H49  1  0.66870000  0.48781000  0.99721000  1.0
  H  H50  1  0.90347000  0.15263000  0.33434000  1.0
  H  H51  1  0.09653000  0.84737000  0.66566000  1.0
  H  H52  1  0.59868000  0.20786000  0.37419000  1.0
  H  H53  1  0.40133000  0.79214000  0.62581000  1.0
  H  H54  1  0.85925000  0.39833000  0.47489000  1.0
  H  H55  1  0.14075000  0.60168000  0.52511000  1.0
  H  H56  1  0.46553000  0.35179000  0.43811000  1.0
  H  H57  1  0.53447000  0.64821000  0.56190000  1.0
  H  H58  1  0.51560000  0.33840000  0.52885000  1.0
  H  H59  1  0.48440000  0.66159000  0.47115000  1.0
  H  H60  1  0.59187000  0.50653000  0.41719000  1.0
  H  H61  1  0.40813000  0.49347000  0.58282000  1.0
  H  H62  1  0.66799000  0.49140000  0.50088000  1.0
  H  H63  1  0.33202000  0.50860000  0.49912000  1.0
  H  H64  1  0.55473000  0.70678000  0.25299000  1.0
  H  H65  1  0.44528000  0.29322000  0.74701000  1.0
  H  H66  1  0.32044000  0.65324000  0.36069000  1.0
  H  H67  1  0.67958000  0.34675000  0.63931000  1.0
  C  C68  1  0.71593000  0.87858000  0.15551000  1.0
  C  C69  1  0.28406000  0.12142000  0.84448000  1.0
  C  C70  1  0.58737000  0.94423000  0.18569000  1.0
  C  C71  1  0.41262000  0.05577000  0.81430000  1.0
  C  C72  1  0.46499000  0.96908000  0.15330000  1.0
  C  C73  1  0.53500000  0.03092000  0.84669000  1.0
  C  C74  1  0.36116000  0.03085000  0.20087000  1.0
  C  C75  1  0.63882000  0.96916000  0.79913000  1.0
  C  C76  1  0.40662000  0.05322000  0.26850000  1.0
  C  C77  1  0.59336000  0.94678000  0.73150000  1.0
  C  C78  1  0.33403000  0.11843000  0.33117000  1.0
  C  C79  1  0.66596000  0.88156000  0.66884000  1.0
  C  C80  1  0.77308000  0.76174000  0.91467000  1.0
  C  C81  1  0.22692000  0.23826000  0.08532000  1.0
  C  C82  1  0.80895000  0.73107000  0.83962000  1.0
  C  C83  1  0.19104000  0.26893000  0.16038000  1.0
  C  C84  1  0.93322000  0.64174000  0.91044000  1.0
  C  C85  1  0.06677000  0.35827000  0.08956000  1.0
  C  C86  1  0.98961000  0.60323000  0.77036000  1.0
  C  C87  1  0.01038000  0.39677000  0.22963000  1.0
  C  C88  1  0.96765000  0.49588000  0.77742000  1.0
  C  C89  1  0.03234000  0.50413000  0.22258000  1.0
  C  C90  1  0.06120000  0.44596000  0.70678000  1.0
  C  C91  1  0.93880000  0.55404000  0.29322000  1.0
  C  C92  1  0.04203000  0.33823000  0.71050000  1.0
  C  C93  1  0.95798000  0.66177000  0.28950000  1.0
  C  C94  1  0.21291000  0.21402000  0.63013000  1.0
  C  C95  1  0.78710000  0.78598000  0.36988000  1.0
  C  C96  1  0.24690000  0.19285000  0.55293000  1.0
  C  C97  1  0.75311000  0.80715000  0.44707000  1.0
  C  C98  1  0.09004000  0.31585000  0.56777000  1.0
  C  C99  1  0.90997000  0.68416000  0.43223000  1.0
  C  C100  1  0.14994000  0.78315000  0.12644000  1.0
  C  C101  1  0.85007000  0.21685000  0.87356000  1.0
  C  C102  1  0.29726000  0.75165000  0.11650000  1.0
  C  C103  1  0.70274000  0.24835000  0.88351000  1.0
  C  C104  1  0.19007000  0.68161000  0.03092000  1.0
  C  C105  1  0.80993000  0.31839000  0.96908000  1.0
  C  C106  1  0.45850000  0.63401000  0.02285000  1.0
  C  C107  1  0.54150000  0.36598000  0.97715000  1.0
  C  C108  1  0.43326000  0.52666000  0.02470000  1.0
  C  C109  1  0.56674000  0.47334000  0.97530000  1.0
  C  C110  1  0.84852000  0.21184000  0.36902000  1.0
  C  C111  1  0.15150000  0.78815000  0.63098000  1.0
  C  C112  1  0.69916000  0.23914000  0.38702000  1.0
  C  C113  1  0.30082000  0.76085000  0.61298000  1.0
  C  C114  1  0.83193000  0.33865000  0.44188000  1.0
  C  C115  1  0.16808000  0.66134000  0.55812000  1.0
  C  C116  1  0.55166000  0.36882000  0.47086000  1.0
  C  C117  1  0.44835000  0.63118000  0.52914000  1.0
  C  C118  1  0.57022000  0.47624000  0.47564000  1.0
  C  C119  1  0.42979000  0.52376000  0.52436000  1.0
  C  C120  1  0.71457000  0.56248000  0.15146000  1.0
  C  C121  1  0.28543000  0.43752000  0.84854000  1.0
  C  C122  1  0.58193000  0.55852000  0.21644000  1.0
  C  C123  1  0.41808000  0.44148000  0.78356000  1.0
  C  C124  1  0.51373000  0.63440000  0.26175000  1.0
  C  C125  1  0.48629000  0.36560000  0.73826000  1.0
  C  C126  1  0.39053000  0.60590000  0.31886000  1.0
  C  C127  1  0.60949000  0.39410000  0.68115000  1.0
  C  C128  1  0.36712000  0.50867000  0.31662000  1.0
  C  C129  1  0.63290000  0.49133000  0.68338000  1.0
  C  C130  1  0.25362000  0.44933000  0.36637000  1.0
  C  C131  1  0.74639000  0.55066000  0.63363000  1.0
  S  S132  1  0.57539000  0.99777000  0.27378000  1.0
  S  S133  1  0.42460000  0.00223000  0.72621000  1.0
  S  S134  1  0.49547000  0.45274000  0.24431000  1.0
  S  S135  1  0.50454000  0.54726000  0.75569000  1.0
  N  N136  1  0.85147000  0.70540000  0.95823000  1.0
  N  N137  1  0.14853000  0.29461000  0.04176000  1.0
  N  N138  1  0.91047000  0.65563000  0.83826000  1.0
  N  N139  1  0.08952000  0.34437000  0.16174000  1.0
  N  N140  1  0.11395000  0.29176000  0.63821000  1.0
  N  N141  1  0.88605000  0.70825000  0.36179000  1.0
  N  N142  1  0.16909000  0.25673000  0.51485000  1.0
  N  N143  1  0.83092000  0.74327000  0.48516000  1.0
  N  N144  1  0.08441000  0.73864000  0.07263000  1.0
  N  N145  1  0.91559000  0.26136000  0.92737000  1.0
  N  N146  1  0.32021000  0.68765000  0.05603000  1.0
  N  N147  1  0.67979000  0.31234000  0.94397000  1.0
  N  N148  1  0.92983000  0.27431000  0.40360000  1.0
  N  N149  1  0.07017000  0.72569000  0.59640000  1.0
  N  N150  1  0.69097000  0.31927000  0.43301000  1.0
  N  N151  1  0.30904000  0.68072000  0.56699000  1.0
  O  O152  1  0.71884000  0.84377000  0.08744000  1.0
  O  O153  1  0.28114000  0.15622000  0.91255000  1.0
  O  O154  1  0.81114000  0.85870000  0.19582000  1.0
  O  O155  1  0.18885000  0.14131000  0.80417000  1.0
  O  O156  1  0.20406000  0.15534000  0.32558000  1.0
  O  O157  1  0.79594000  0.84466000  0.67443000  1.0
  O  O158  1  0.40001000  0.13629000  0.38492000  1.0
  O  O159  1  0.59999000  0.86369000  0.61508000  1.0
  O  O160  1  0.77274000  0.64578000  0.14397000  1.0
  O  O161  1  0.22727000  0.35422000  0.85603000  1.0
  O  O162  1  0.75958000  0.48943000  0.11183000  1.0
  O  O163  1  0.24043000  0.51058000  0.88816000  1.0
  O  O164  1  0.15730000  0.48535000  0.42015000  1.0
  O  O165  1  0.84271000  0.51465000  0.57985000  1.0
  O  O166  1  0.26841000  0.35982000  0.34718000  1.0
  O  O167  1  0.73160000  0.64018000  0.65282000  1.0
