# generated using pymatgen
data_CdH14C20(NO)4
_symmetry_space_group_name_H-M   'P 1'
_cell_length_a   10.32740000
_cell_length_b   13.98700000
_cell_length_c   15.93990000
_cell_angle_alpha   89.99980000
_cell_angle_beta   102.61000000
_cell_angle_gamma   89.99970000
_symmetry_Int_Tables_number   1
_chemical_formula_structural   CdH14C20(NO)4
_chemical_formula_sum   'Cd4 H56 C80 N16 O16'
_cell_volume   2246.96854656
_cell_formula_units_Z   4
loop_
 _symmetry_equiv_pos_site_id
 _symmetry_equiv_pos_as_xyz
  1  'x, y, z'
loop_
 _atom_site_type_symbol
 _atom_site_label
 _atom_site_symmetry_multiplicity
 _atom_site_fract_x
 _atom_site_fract_y
 _atom_site_fract_z
 _atom_site_occupancy
  Cd  Cd0  1  0.61922000  0.47867000  0.91665000  1.0
  Cd  Cd1  1  0.38078000  0.97867000  0.58335000  1.0
  Cd  Cd2  1  0.38078000  0.52133000  0.08335000  1.0
  Cd  Cd3  1  0.61922000  0.02133000  0.41665000  1.0
  H  H4  1  0.09781000  0.46135000  0.92153000  1.0
  H  H5  1  0.90219000  0.96135000  0.57847000  1.0
  H  H6  1  0.90218000  0.53865000  0.07847000  1.0
  H  H7  1  0.09781000  0.03865000  0.42153000  1.0
  H  H8  1  0.25888000  0.46556000  0.69415000  1.0
  H  H9  1  0.74112000  0.96555000  0.80585000  1.0
  H  H10  1  0.74112000  0.53444000  0.30585000  1.0
  H  H11  1  0.25888000  0.03444000  0.19415000  1.0
  H  H12  1  0.03241000  0.49274000  0.60343000  1.0
  H  H13  1  0.96759000  0.99273000  0.89657000  1.0
  H  H14  1  0.96759000  0.50726000  0.39656000  1.0
  H  H15  1  0.03241000  0.00727000  0.10343000  1.0
  H  H16  1  0.83627000  0.49541000  0.67385000  1.0
  H  H17  1  0.16373000  0.99541000  0.82615000  1.0
  H  H18  1  0.16373000  0.50459000  0.32615000  1.0
  H  H19  1  0.83627000  0.00459000  0.17385000  1.0
  H  H20  1  0.53796000  0.24762000  0.87419000  1.0
  H  H21  1  0.46204000  0.74762000  0.62581000  1.0
  H  H22  1  0.46204000  0.75238000  0.12581000  1.0
  H  H23  1  0.53796000  0.25238000  0.37419000  1.0
  H  H24  1  0.81194000  0.35265000  0.08971000  1.0
  H  H25  1  0.18805000  0.85266000  0.41030000  1.0
  H  H26  1  0.18805000  0.64735000  0.91030000  1.0
  H  H27  1  0.81194000  0.14734000  0.58971000  1.0
  H  H28  1  0.81539000  0.15449000  0.09725000  1.0
  H  H29  1  0.18461000  0.65450000  0.40275000  1.0
  H  H30  1  0.18461000  0.84551000  0.90275000  1.0
  H  H31  1  0.81539000  0.34550000  0.59726000  1.0
  H  H32  1  0.44434000  0.10676000  0.87383000  1.0
  H  H33  1  0.55566000  0.60675000  0.62617000  1.0
  H  H34  1  0.55566000  0.89325000  0.12617000  1.0
  H  H35  1  0.44434000  0.39324000  0.37383000  1.0
  H  H36  1  0.39570000  0.94231000  0.82626000  1.0
  H  H37  1  0.60429000  0.44231000  0.67374000  1.0
  H  H38  1  0.60429000  0.05769000  0.17374000  1.0
  H  H39  1  0.39571000  0.55769000  0.32626000  1.0
  H  H40  1  0.77478000  0.85208000  0.97990000  1.0
  H  H41  1  0.22522000  0.35208000  0.52009000  1.0
  H  H42  1  0.22521000  0.14792000  0.02009000  1.0
  H  H43  1  0.77478000  0.64792000  0.47991000  1.0
  H  H44  1  0.82537000  0.01913000  0.02440000  1.0
  H  H45  1  0.17463000  0.51913000  0.47560000  1.0
  H  H46  1  0.17463000  0.98087000  0.97560000  1.0
  H  H47  1  0.82537000  0.48087000  0.52440000  1.0
  H  H48  1  0.67195000  0.70768000  0.97901000  1.0
  H  H49  1  0.32805000  0.20768000  0.52099000  1.0
  H  H50  1  0.32804000  0.29232000  0.02099000  1.0
  H  H51  1  0.67196000  0.79232000  0.47901000  1.0
  H  H52  1  0.40429000  0.81312000  0.75673000  1.0
  H  H53  1  0.59571000  0.31312000  0.74327000  1.0
  H  H54  1  0.59570000  0.18688000  0.24327000  1.0
  H  H55  1  0.40429000  0.68688000  0.25673000  1.0
  H  H56  1  0.40875000  0.61298000  0.75510000  1.0
  H  H57  1  0.59125000  0.11297000  0.74490000  1.0
  H  H58  1  0.59125000  0.38703000  0.24490000  1.0
  H  H59  1  0.40875000  0.88703000  0.25510000  1.0
  C  C60  1  0.95535000  0.47667000  0.80107000  1.0
  C  C61  1  0.04464000  0.97667000  0.69893000  1.0
  C  C62  1  0.04464000  0.52333000  0.19892000  1.0
  C  C63  1  0.95536000  0.02333000  0.30107000  1.0
  C  C64  1  0.08361000  0.46598000  0.85173000  1.0
  C  C65  1  0.91639000  0.96598000  0.64827000  1.0
  C  C66  1  0.91638000  0.53402000  0.14827000  1.0
  C  C67  1  0.08361000  0.03402000  0.35173000  1.0
  C  C68  1  0.19230000  0.46038000  0.81242000  1.0
  C  C69  1  0.80770000  0.96037000  0.68758000  1.0
  C  C70  1  0.80770000  0.53963000  0.18758000  1.0
  C  C71  1  0.19230000  0.03963000  0.31242000  1.0
  C  C72  1  0.17277000  0.46967000  0.72297000  1.0
  C  C73  1  0.82723000  0.96967000  0.77703000  1.0
  C  C74  1  0.82723000  0.53033000  0.27703000  1.0
  C  C75  1  0.17277000  0.03033000  0.22297000  1.0
  C  C76  1  0.04570000  0.48387000  0.67287000  1.0
  C  C77  1  0.95429000  0.98387000  0.82713000  1.0
  C  C78  1  0.95429000  0.51613000  0.32713000  1.0
  C  C79  1  0.04570000  0.01613000  0.17287000  1.0
  C  C80  1  0.93704000  0.48590000  0.71165000  1.0
  C  C81  1  0.06296000  0.98590000  0.78835000  1.0
  C  C82  1  0.06296000  0.51410000  0.28835000  1.0
  C  C83  1  0.93704000  0.01410000  0.21165000  1.0
  C  C84  1  0.83650000  0.47671000  0.84117000  1.0
  C  C85  1  0.16350000  0.97671000  0.65883000  1.0
  C  C86  1  0.16350000  0.52329000  0.15882000  1.0
  C  C87  1  0.83651000  0.02329000  0.34117000  1.0
  C  C88  1  0.33124000  0.44681000  0.86446000  1.0
  C  C89  1  0.66876000  0.94681000  0.63554000  1.0
  C  C90  1  0.66876000  0.55319000  0.13554000  1.0
  C  C91  1  0.33124000  0.05319000  0.36446000  1.0
  C  C92  1  0.61184000  0.24991000  0.93404000  1.0
  C  C93  1  0.38816000  0.74991000  0.56596000  1.0
  C  C94  1  0.38815000  0.75009000  0.06596000  1.0
  C  C95  1  0.61185000  0.25009000  0.43404000  1.0
  C  C96  1  0.75558000  0.30075000  0.04594000  1.0
  C  C97  1  0.24442000  0.80075000  0.45406000  1.0
  C  C98  1  0.24442000  0.69925000  0.95406000  1.0
  C  C99  1  0.75558000  0.19924000  0.54594000  1.0
  C  C100  1  0.75964000  0.20280000  0.04969000  1.0
  C  C101  1  0.24036000  0.70280000  0.45031000  1.0
  C  C102  1  0.24036000  0.79720000  0.95031000  1.0
  C  C103  1  0.75964000  0.29720000  0.54970000  1.0
  C  C104  1  0.63823000  0.07436000  0.95302000  1.0
  C  C105  1  0.36178000  0.57436000  0.54698000  1.0
  C  C106  1  0.36177000  0.92564000  0.04698000  1.0
  C  C107  1  0.63823000  0.42564000  0.45302000  1.0
  C  C108  1  0.51771000  0.05161000  0.89729000  1.0
  C  C109  1  0.48228000  0.55160000  0.60271000  1.0
  C  C110  1  0.48228000  0.94840000  0.10271000  1.0
  C  C111  1  0.51772000  0.44839000  0.39729000  1.0
  C  C112  1  0.48891000  0.95772000  0.87160000  1.0
  C  C113  1  0.51109000  0.45772000  0.62840000  1.0
  C  C114  1  0.51108000  0.04228000  0.12840000  1.0
  C  C115  1  0.48892000  0.54228000  0.37160000  1.0
  C  C116  1  0.58007000  0.88520000  0.90227000  1.0
  C  C117  1  0.41992000  0.38519000  0.59773000  1.0
  C  C118  1  0.41992000  0.11480000  0.09773000  1.0
  C  C119  1  0.58008000  0.61480000  0.40227000  1.0
  C  C120  1  0.70083000  0.90740000  0.95815000  1.0
  C  C121  1  0.29917000  0.40740000  0.54185000  1.0
  C  C122  1  0.29917000  0.09260000  0.04185000  1.0
  C  C123  1  0.70083000  0.59260000  0.45815000  1.0
  C  C124  1  0.72976000  0.00179000  0.98307000  1.0
  C  C125  1  0.27023000  0.50179000  0.51693000  1.0
  C  C126  1  0.27023000  0.99821000  0.01693000  1.0
  C  C127  1  0.72977000  0.49821000  0.48307000  1.0
  C  C128  1  0.60259000  0.70864000  0.91727000  1.0
  C  C129  1  0.39740000  0.20863000  0.58273000  1.0
  C  C130  1  0.39740000  0.29137000  0.08273000  1.0
  C  C131  1  0.60260000  0.79136000  0.41727000  1.0
  C  C132  1  0.46055000  0.76132000  0.80080000  1.0
  C  C133  1  0.53944000  0.26132000  0.69920000  1.0
  C  C134  1  0.53944000  0.23868000  0.19920000  1.0
  C  C135  1  0.46056000  0.73868000  0.30080000  1.0
  C  C136  1  0.46402000  0.66326000  0.80102000  1.0
  C  C137  1  0.53598000  0.16325000  0.69898000  1.0
  C  C138  1  0.53597000  0.33675000  0.19898000  1.0
  C  C139  1  0.46402000  0.83675000  0.30102000  1.0
  N  N140  1  0.66328000  0.32871000  0.97383000  1.0
  N  N141  1  0.33672000  0.82871000  0.52617000  1.0
  N  N142  1  0.33672000  0.67129000  0.02617000  1.0
  N  N143  1  0.66328000  0.17129000  0.47383000  1.0
  N  N144  1  0.66769000  0.17066000  0.97797000  1.0
  N  N145  1  0.33231000  0.67066000  0.52203000  1.0
  N  N146  1  0.33231000  0.82934000  0.02203000  1.0
  N  N147  1  0.66769000  0.32934000  0.47797000  1.0
  N  N148  1  0.54996000  0.78972000  0.87514000  1.0
  N  N149  1  0.45004000  0.28972000  0.62486000  1.0
  N  N150  1  0.45004000  0.21028000  0.12486000  1.0
  N  N151  1  0.54996000  0.71028000  0.37514000  1.0
  N  N152  1  0.55247000  0.63174000  0.87383000  1.0
  N  N153  1  0.44753000  0.13173000  0.62617000  1.0
  N  N154  1  0.44752000  0.36827000  0.12617000  1.0
  N  N155  1  0.55248000  0.86826000  0.37383000  1.0
  O  O156  1  0.72639000  0.44680000  0.79519000  1.0
  O  O157  1  0.27362000  0.94680000  0.70481000  1.0
  O  O158  1  0.27361000  0.55320000  0.20480000  1.0
  O  O159  1  0.72639000  0.05320000  0.29520000  1.0
  O  O160  1  0.84927000  0.50570000  0.91804000  1.0
  O  O161  1  0.15074000  0.00570000  0.58196000  1.0
  O  O162  1  0.15073000  0.49430000  0.08196000  1.0
  O  O163  1  0.84927000  0.99430000  0.41804000  1.0
  O  O164  1  0.35280000  0.45238000  0.94588000  1.0
  O  O165  1  0.64719000  0.95238000  0.55413000  1.0
  O  O166  1  0.64719000  0.54762000  0.05412000  1.0
  O  O167  1  0.35280000  0.04762000  0.44588000  1.0
  O  O168  1  0.42220000  0.43122000  0.82316000  1.0
  O  O169  1  0.57780000  0.93121000  0.67684000  1.0
  O  O170  1  0.57780000  0.56879000  0.17684000  1.0
  O  O171  1  0.42220000  0.06878000  0.32316000  1.0
