# generated using pymatgen
data_ErH20C21N4O9
_symmetry_space_group_name_H-M   'P 1'
_cell_length_a   9.83293000
_cell_length_b   11.67120000
_cell_length_c   13.40400000
_cell_angle_alpha   66.86430000
_cell_angle_beta   86.97110000
_cell_angle_gamma   76.69770000
_symmetry_Int_Tables_number   1
_chemical_formula_structural   ErH20C21N4O9
_chemical_formula_sum   'Er2 H40 C42 N8 O18'
_cell_volume   1375.39206322
_cell_formula_units_Z   2
loop_
 _symmetry_equiv_pos_site_id
 _symmetry_equiv_pos_as_xyz
  1  'x, y, z'
loop_
 _atom_site_type_symbol
 _atom_site_label
 _atom_site_symmetry_multiplicity
 _atom_site_fract_x
 _atom_site_fract_y
 _atom_site_fract_z
 _atom_site_occupancy
  Er  Er0  1  0.76344000  0.47232000  0.49673000  1.0
  Er  Er1  1  0.23654000  0.52768000  0.50330000  1.0
  H  H2  1  0.70588000  0.16866000  0.83134000  1.0
  H  H3  1  0.29411000  0.83133000  0.16865000  1.0
  H  H4  1  0.55157000  0.99383000  0.18494000  1.0
  H  H5  1  0.44844000  0.00615000  0.81505000  1.0
  H  H6  1  0.94679000  0.22524000  0.54431000  1.0
  H  H7  1  0.05319000  0.77477000  0.45568000  1.0
  H  H8  1  0.03662000  0.29738000  0.58644000  1.0
  H  H9  1  0.96333000  0.70263000  0.41356000  1.0
  H  H10  1  0.00394000  0.87048000  0.03833000  1.0
  H  H11  1  0.99604000  0.12949000  0.96164000  1.0
  H  H12  1  0.96320000  0.74573000  0.23189000  1.0
  H  H13  1  0.03680000  0.25427000  0.76809000  1.0
  H  H14  1  0.51150000  0.60749000  0.55896000  1.0
  H  H15  1  0.48848000  0.39255000  0.44103000  1.0
  H  H16  1  0.59701000  0.71096000  0.49025000  1.0
  H  H17  1  0.40297000  0.28906000  0.50974000  1.0
  H  H18  1  0.26942000  0.30618000  0.99161000  1.0
  H  H19  1  0.73058000  0.69379000  0.00841000  1.0
  H  H20  1  0.29570000  0.41786000  0.79145000  1.0
  H  H21  1  0.70430000  0.58215000  0.20857000  1.0
  H  H22  1  0.25851000  0.56282000  0.23989000  1.0
  H  H23  1  0.74148000  0.43717000  0.76016000  1.0
  H  H24  1  0.32908000  0.60236000  0.04863000  1.0
  H  H25  1  0.67093000  0.39762000  0.95141000  1.0
  H  H26  1  0.89850000  0.45265000  0.16729000  1.0
  H  H27  1  0.10151000  0.54735000  0.83272000  1.0
  H  H28  1  0.75740000  0.36589000  0.29319000  1.0
  H  H29  1  0.24259000  0.63414000  0.70681000  1.0
  H  H30  1  0.58347000  0.20959000  0.20175000  1.0
  H  H31  1  0.41658000  0.79042000  0.79821000  1.0
  H  H32  1  0.71972000  0.29567000  0.17469000  1.0
  H  H33  1  0.28030000  0.70436000  0.82528000  1.0
  H  H34  1  0.76200000  0.12498000  0.22423000  1.0
  H  H35  1  0.23805000  0.87505000  0.77573000  1.0
  H  H36  1  0.65602000  0.01405000  0.40249000  1.0
  H  H37  1  0.34398000  0.98598000  0.59746000  1.0
  H  H38  1  0.68798000  0.07412000  0.50228000  1.0
  H  H39  1  0.31209000  0.92586000  0.49769000  1.0
  H  H40  1  0.52225000  0.12678000  0.43248000  1.0
  H  H41  1  0.47778000  0.87323000  0.56752000  1.0
  C  C42  1  0.71831000  0.78628000  0.33841000  1.0
  C  C43  1  0.28170000  0.21371000  0.66158000  1.0
  C  C44  1  0.75312000  0.86042000  0.22374000  1.0
  C  C45  1  0.24689000  0.13956000  0.77625000  1.0
  C  C46  1  0.60768000  0.20180000  0.86362000  1.0
  C  C47  1  0.39231000  0.79820000  0.13637000  1.0
  C  C48  1  0.65343000  0.96433000  0.15558000  1.0
  C  C49  1  0.34657000  0.03566000  0.84441000  1.0
  C  C50  1  0.68555000  0.02963000  0.04790000  1.0
  C  C51  1  0.31445000  0.97035000  0.95209000  1.0
  C  C52  1  0.90397000  0.89506000  0.07307000  1.0
  C  C53  1  0.09602000  0.10492000  0.92691000  1.0
  C  C54  1  0.88171000  0.82513000  0.18155000  1.0
  C  C55  1  0.11830000  0.17485000  0.81844000  1.0
  C  C56  1  0.58174000  0.14122000  0.97377000  1.0
  C  C57  1  0.41826000  0.85876000  0.02623000  1.0
  C  C58  1  0.36479000  0.27759000  0.95331000  1.0
  C  C59  1  0.63521000  0.72239000  0.04670000  1.0
  C  C60  1  0.37964000  0.34145000  0.84239000  1.0
  C  C61  1  0.62036000  0.65855000  0.15762000  1.0
  C  C62  1  0.50472000  0.30384000  0.79700000  1.0
  C  C63  1  0.49528000  0.69617000  0.20300000  1.0
  C  C64  1  0.02048000  0.48481000  0.32996000  1.0
  C  C65  1  0.97951000  0.51518000  0.67007000  1.0
  C  C66  1  0.07242000  0.50447000  0.21836000  1.0
  C  C67  1  0.92757000  0.49552000  0.78167000  1.0
  C  C68  1  0.19569000  0.54641000  0.18452000  1.0
  C  C69  1  0.80430000  0.45359000  0.81551000  1.0
  C  C70  1  0.23381000  0.56851000  0.07787000  1.0
  C  C71  1  0.76619000  0.43148000  0.92218000  1.0
  C  C72  1  0.04113000  0.50966000  0.03968000  1.0
  C  C73  1  0.95888000  0.49033000  0.96036000  1.0
  C  C74  1  0.99478000  0.48539000  0.14476000  1.0
  C  C75  1  0.00522000  0.51461000  0.85527000  1.0
  C  C76  1  0.72370000  0.29103000  0.36324000  1.0
  C  C77  1  0.27629000  0.70899000  0.63673000  1.0
  C  C78  1  0.68745000  0.20860000  0.22897000  1.0
  C  C79  1  0.31259000  0.79142000  0.77100000  1.0
  C  C80  1  0.63545000  0.09748000  0.42433000  1.0
  C  C81  1  0.36457000  0.90252000  0.57564000  1.0
  C  C82  1  0.52688000  0.37487000  0.67904000  1.0
  C  C83  1  0.47309000  0.62514000  0.32096000  1.0
  N  N84  1  0.80917000  0.99521000  0.00693000  1.0
  N  N85  1  0.19082000  0.00476000  0.99305000  1.0
  N  N86  1  0.15937000  0.55144000  0.00604000  1.0
  N  N87  1  0.84065000  0.44855000  0.99400000  1.0
  N  N88  1  0.68523000  0.20173000  0.34003000  1.0
  N  N89  1  0.31479000  0.79828000  0.65994000  1.0
  N  N90  1  0.46283000  0.18011000  0.01831000  1.0
  N  N91  1  0.53717000  0.81987000  0.98169000  1.0
  O  O92  1  0.60773000  0.83015000  0.37590000  1.0
  O  O93  1  0.39228000  0.16986000  0.62408000  1.0
  O  O94  1  0.80504000  0.67917000  0.39167000  1.0
  O  O95  1  0.19496000  0.32083000  0.60834000  1.0
  O  O96  1  0.90084000  0.45935000  0.35128000  1.0
  O  O97  1  0.09912000  0.54066000  0.64872000  1.0
  O  O98  1  0.72412000  0.29227000  0.45680000  1.0
  O  O99  1  0.27586000  0.70773000  0.54320000  1.0
  O  O100  1  0.94126000  0.28290000  0.58123000  1.0
  O  O101  1  0.05870000  0.71710000  0.41877000  1.0
  O  O102  1  0.64853000  0.35623000  0.64396000  1.0
  O  O103  1  0.35145000  0.64379000  0.35604000  1.0
  O  O104  1  0.09749000  0.49709000  0.39599000  1.0
  O  O105  1  0.90251000  0.50287000  0.60404000  1.0
  O  O106  1  0.60504000  0.62503000  0.55269000  1.0
  O  O107  1  0.39495000  0.37499000  0.44730000  1.0
  O  O108  1  0.42082000  0.45576000  0.62145000  1.0
  O  O109  1  0.57917000  0.54424000  0.37856000  1.0
