# generated using pymatgen
data_ZnH18C22(NO3)2
_symmetry_space_group_name_H-M   'P 1'
_cell_length_a   9.43395000
_cell_length_b   9.71162000
_cell_length_c   11.48310000
_cell_angle_alpha   90.00020000
_cell_angle_beta   90.00010000
_cell_angle_gamma   106.76400000
_symmetry_Int_Tables_number   1
_chemical_formula_structural   ZnH18C22(NO3)2
_chemical_formula_sum   'Zn2 H36 C44 N4 O12'
_cell_volume   1007.35743089
_cell_formula_units_Z   2
loop_
 _symmetry_equiv_pos_site_id
 _symmetry_equiv_pos_as_xyz
  1  'x, y, z'
loop_
 _atom_site_type_symbol
 _atom_site_label
 _atom_site_symmetry_multiplicity
 _atom_site_fract_x
 _atom_site_fract_y
 _atom_site_fract_z
 _atom_site_occupancy
  Zn  Zn0  1  0.75000000  0.50000000  0.91857000  1.0
  Zn  Zn1  1  0.25000000  0.50000000  0.08143000  1.0
  H  H2  1  0.69043000  0.72842000  0.88097000  1.0
  H  H3  1  0.80957000  0.27158000  0.88097000  1.0
  H  H4  1  0.30957000  0.27158000  0.11903000  1.0
  H  H5  1  0.19043000  0.72842000  0.11903000  1.0
  H  H6  1  0.56077000  0.66118000  0.97785000  1.0
  H  H7  1  0.93923000  0.33881000  0.97785000  1.0
  H  H8  1  0.43923000  0.33881000  0.02215000  1.0
  H  H9  1  0.06077000  0.66118000  0.02215000  1.0
  H  H10  1  0.88771000  0.36872000  0.71542000  1.0
  H  H11  1  0.61230000  0.63129000  0.71542000  1.0
  H  H12  1  0.11230000  0.63129000  0.28458000  1.0
  H  H13  1  0.38771000  0.36872000  0.28458000  1.0
  H  H14  1  0.88539000  0.35480000  0.49833000  1.0
  H  H15  1  0.61461000  0.64521000  0.49833000  1.0
  H  H16  1  0.11461000  0.64521000  0.50167000  1.0
  H  H17  1  0.38539000  0.35479000  0.50167000  1.0
  H  H18  1  0.70282000  0.26840000  0.33295000  1.0
  H  H19  1  0.79717000  0.73160000  0.33295000  1.0
  H  H20  1  0.29717000  0.73161000  0.66705000  1.0
  H  H21  1  0.20282000  0.26839000  0.66705000  1.0
  H  H22  1  0.70237000  0.27827000  0.11587000  1.0
  H  H23  1  0.79763000  0.72173000  0.11587000  1.0
  H  H24  1  0.29762000  0.72173000  0.88414000  1.0
  H  H25  1  0.20237000  0.27827000  0.88413000  1.0
  H  H26  1  0.12408000  0.91806000  0.04572000  1.0
  H  H27  1  0.37593000  0.08194000  0.04572000  1.0
  H  H28  1  0.87593000  0.08194000  0.95428000  1.0
  H  H29  1  0.62407000  0.91806000  0.95428000  1.0
  H  H30  1  0.98709000  0.84771000  0.64226000  1.0
  H  H31  1  0.51291000  0.15229000  0.64226000  1.0
  H  H32  1  0.01291000  0.15229000  0.35774000  1.0
  H  H33  1  0.48709000  0.84771000  0.35773000  1.0
  H  H34  1  0.11839000  0.92565000  0.45524000  1.0
  H  H35  1  0.38161000  0.07435000  0.45524000  1.0
  H  H36  1  0.88161000  0.07435000  0.54476000  1.0
  H  H37  1  0.61839000  0.92565000  0.54476000  1.0
  C  C38  1  0.82520000  0.42504000  0.66393000  1.0
  C  C39  1  0.67481000  0.57497000  0.66393000  1.0
  C  C40  1  0.17481000  0.57497000  0.33607000  1.0
  C  C41  1  0.32519000  0.42503000  0.33608000  1.0
  C  C42  1  0.82488000  0.41920000  0.54295000  1.0
  C  C43  1  0.67512000  0.58081000  0.54295000  1.0
  C  C44  1  0.17512000  0.58081000  0.45705000  1.0
  C  C45  1  0.32488000  0.41919000  0.45705000  1.0
  C  C46  1  0.75000000  0.50000000  0.47972000  1.0
  C  C47  1  0.25000000  0.50000000  0.52028000  1.0
  C  C48  1  0.75000000  0.50000000  0.35127000  1.0
  C  C49  1  0.25000000  0.50000000  0.64873000  1.0
  C  C50  1  0.72441000  0.37147000  0.28840000  1.0
  C  C51  1  0.77558000  0.62852000  0.28840000  1.0
  C  C52  1  0.27558000  0.62852000  0.71160000  1.0
  C  C53  1  0.22441000  0.37147000  0.71160000  1.0
  C  C54  1  0.72411000  0.37637000  0.16739000  1.0
  C  C55  1  0.77588000  0.62363000  0.16739000  1.0
  C  C56  1  0.27588000  0.62362000  0.83262000  1.0
  C  C57  1  0.22411000  0.37637000  0.83262000  1.0
  C  C58  1  0.17791000  0.95264000  0.96250000  1.0
  C  C59  1  0.32209000  0.04735000  0.96251000  1.0
  C  C60  1  0.82209000  0.04736000  0.03749000  1.0
  C  C61  1  0.67791000  0.95264000  0.03749000  1.0
  C  C62  1  0.10380000  0.90693000  0.85925000  1.0
  C  C63  1  0.39620000  0.09307000  0.85926000  1.0
  C  C64  1  0.89620000  0.09307000  0.14075000  1.0
  C  C65  1  0.60380000  0.90693000  0.14075000  1.0
  C  C66  1  0.17455000  0.95477000  0.75041000  1.0
  C  C67  1  0.32544000  0.04523000  0.75041000  1.0
  C  C68  1  0.82544000  0.04523000  0.24959000  1.0
  C  C69  1  0.67455000  0.95477000  0.24958000  1.0
  C  C70  1  0.10230000  0.91333000  0.64174000  1.0
  C  C71  1  0.39770000  0.08667000  0.64174000  1.0
  C  C72  1  0.89770000  0.08667000  0.35826000  1.0
  C  C73  1  0.60230000  0.91334000  0.35826000  1.0
  C  C74  1  0.17538000  0.95694000  0.53798000  1.0
  C  C75  1  0.32462000  0.04306000  0.53798000  1.0
  C  C76  1  0.82462000  0.04306000  0.46202000  1.0
  C  C77  1  0.67538000  0.95694000  0.46202000  1.0
  C  C78  1  0.95067000  0.80400000  0.86571000  1.0
  C  C79  1  0.54933000  0.19599000  0.86571000  1.0
  C  C80  1  0.04933000  0.19599000  0.13429000  1.0
  C  C81  1  0.45067000  0.80401000  0.13429000  1.0
  N  N82  1  0.75000000  0.50000000  0.72438000  1.0
  N  N83  1  0.25000000  0.50000000  0.27562000  1.0
  N  N84  1  0.75000000  0.50000000  0.10747000  1.0
  N  N85  1  0.25000000  0.50000000  0.89253000  1.0
  O  O86  1  0.94079000  0.68636000  0.92185000  1.0
  O  O87  1  0.55922000  0.31364000  0.92186000  1.0
  O  O88  1  0.05922000  0.31364000  0.07814000  1.0
  O  O89  1  0.44079000  0.68636000  0.07814000  1.0
  O  O90  1  0.84372000  0.83698000  0.81991000  1.0
  O  O91  1  0.65628000  0.16302000  0.81992000  1.0
  O  O92  1  0.15628000  0.16302000  0.18008000  1.0
  O  O93  1  0.34372000  0.83698000  0.18008000  1.0
  O  O94  1  0.61472000  0.63903000  0.90872000  1.0
  O  O95  1  0.88528000  0.36097000  0.90872000  1.0
  O  O96  1  0.38528000  0.36097000  0.09128000  1.0
  O  O97  1  0.11472000  0.63903000  0.09128000  1.0
