# generated using pymatgen
data_NiH7C8S2N3O
_symmetry_space_group_name_H-M   'P 1'
_cell_length_a   7.86210000
_cell_length_b   8.04380000
_cell_length_c   9.40395000
_cell_angle_alpha   71.38640000
_cell_angle_beta   73.85780000
_cell_angle_gamma   71.59680000
_symmetry_Int_Tables_number   1
_chemical_formula_structural   NiH7C8S2N3O
_chemical_formula_sum   'Ni2 H14 C16 S4 N6 O2'
_cell_volume   524.29203291
_cell_formula_units_Z   2
loop_
 _symmetry_equiv_pos_site_id
 _symmetry_equiv_pos_as_xyz
  1  'x, y, z'
loop_
 _atom_site_type_symbol
 _atom_site_label
 _atom_site_symmetry_multiplicity
 _atom_site_fract_x
 _atom_site_fract_y
 _atom_site_fract_z
 _atom_site_occupancy
  Ni  Ni0  1  0.96731000  0.84371000  0.58431000  1.0
  Ni  Ni1  1  0.21914000  0.11163000  0.61197000  1.0
  H  H2  1  0.40370000  0.65180000  0.63572000  1.0
  H  H3  1  0.78538000  0.30666000  0.56194000  1.0
  H  H4  1  0.04863000  0.81775000  0.00783000  1.0
  H  H5  1  0.12907000  0.13224000  0.18954000  1.0
  H  H6  1  0.97294000  0.40055000  0.00401000  1.0
  H  H7  1  0.20809000  0.55262000  0.19376000  1.0
  H  H8  1  0.50030000  0.30050000  0.22880000  1.0
  H  H9  1  0.64489000  0.22308000  0.06613000  1.0
  H  H10  1  0.43340000  0.16504000  0.15075000  1.0
  H  H11  1  0.61058000  0.58391000  0.39187000  1.0
  H  H12  1  0.58140000  0.37724000  0.80620000  1.0
  H  H13  1  0.54517000  0.68594000  0.08488000  1.0
  H  H14  1  0.75820000  0.69914000  0.95809000  1.0
  H  H15  1  0.67972000  0.80689000  0.11217000  1.0
  C  C16  1  0.60394000  0.93306000  0.44862000  1.0
  C  C17  1  0.77947000  0.51866000  0.18219000  1.0
  C  C18  1  0.40789000  0.43892000  0.01556000  1.0
  C  C19  1  0.94404000  0.44853000  0.74059000  1.0
  C  C20  1  0.24323000  0.50657000  0.45612000  1.0
  C  C21  1  0.37056000  0.61884000  0.75989000  1.0
  C  C22  1  0.81650000  0.33824000  0.43782000  1.0
  C  C23  1  0.16655000  0.71424000  0.97250000  1.0
  C  C24  1  0.01432000  0.23814000  0.22511000  1.0
  C  C25  1  0.92537000  0.38715000  0.12632000  1.0
  C  C26  1  0.25705000  0.56689000  0.07144000  1.0
  C  C27  1  0.50303000  0.27450000  0.12058000  1.0
  C  C28  1  0.72512000  0.48800000  0.34175000  1.0
  C  C29  1  0.46349000  0.47038000  0.85621000  1.0
  C  C30  1  0.58216000  0.02306000  0.74724000  1.0
  C  C31  1  0.68727000  0.68585000  0.07770000  1.0
  S  S32  1  0.24265000  0.72063000  0.41120000  1.0
  S  S33  1  0.36288000  0.09320000  0.81169000  1.0
  S  S34  1  0.94493000  0.23440000  0.78555000  1.0
  S  S35  1  0.82334000  0.86260000  0.38457000  1.0
  N  N36  1  0.44516000  0.98081000  0.49498000  1.0
  N  N37  1  0.24344000  0.35206000  0.48779000  1.0
  N  N38  1  0.94328000  0.60323000  0.70875000  1.0
  N  N39  1  0.96235000  0.21910000  0.37822000  1.0
  N  N40  1  0.22200000  0.73558000  0.81916000  1.0
  N  N41  1  0.74089000  0.97528000  0.70065000  1.0
  O  O42  1  0.12720000  0.87621000  0.72590000  1.0
  O  O43  1  0.05818000  0.07890000  0.47109000  1.0
