# generated using pymatgen
data_TbH28C39NO8
_symmetry_space_group_name_H-M   'P 1'
_cell_length_a   9.32772000
_cell_length_b   16.48480000
_cell_length_c   23.74740000
_cell_angle_alpha   90.00010000
_cell_angle_beta   90.00010000
_cell_angle_gamma   102.47500000
_symmetry_Int_Tables_number   1
_chemical_formula_structural   TbH28C39NO8
_chemical_formula_sum   'Tb4 H112 C156 N4 O32'
_cell_volume   3565.32177102
_cell_formula_units_Z   4
loop_
 _symmetry_equiv_pos_site_id
 _symmetry_equiv_pos_as_xyz
  1  'x, y, z'
loop_
 _atom_site_type_symbol
 _atom_site_label
 _atom_site_symmetry_multiplicity
 _atom_site_fract_x
 _atom_site_fract_y
 _atom_site_fract_z
 _atom_site_occupancy
  Tb  Tb0  1  0.75512000  0.51157000  0.48541000  1.0
  Tb  Tb1  1  0.74488000  0.48843000  0.98541000  1.0
  Tb  Tb2  1  0.24489000  0.48843000  0.51459000  1.0
  Tb  Tb3  1  0.25512000  0.51157000  0.01459000  1.0
  H  H4  1  0.30780000  0.74952000  0.90172000  1.0
  H  H5  1  0.19220000  0.25047000  0.40172000  1.0
  H  H6  1  0.69220000  0.25048000  0.09828000  1.0
  H  H7  1  0.80781000  0.74953000  0.59828000  1.0
  H  H8  1  0.07060000  0.72786000  0.95022000  1.0
  H  H9  1  0.42940000  0.27214000  0.45022000  1.0
  H  H10  1  0.92940000  0.27215000  0.04978000  1.0
  H  H11  1  0.57061000  0.72786000  0.54978000  1.0
  H  H12  1  0.99999000  0.95883000  0.88305000  1.0
  H  H13  1  0.50002000  0.04117000  0.38305000  1.0
  H  H14  1  0.00001000  0.04118000  0.11695000  1.0
  H  H15  1  0.50000000  0.95883000  0.61695000  1.0
  H  H16  1  0.24052000  0.98131000  0.83436000  1.0
  H  H17  1  0.25949000  0.01869000  0.33435000  1.0
  H  H18  1  0.75948000  0.01869000  0.16564000  1.0
  H  H19  1  0.74052000  0.98131000  0.66565000  1.0
  H  H20  1  0.82910000  0.69490000  0.94270000  1.0
  H  H21  1  0.67091000  0.30510000  0.44270000  1.0
  H  H22  1  0.17090000  0.30510000  0.05730000  1.0
  H  H23  1  0.32911000  0.69490000  0.55730000  1.0
  H  H24  1  0.48085000  0.79251000  0.01535000  1.0
  H  H25  1  0.01915000  0.20748000  0.51535000  1.0
  H  H26  1  0.51915000  0.20748000  0.98465000  1.0
  H  H27  1  0.98085000  0.79251000  0.48465000  1.0
  H  H28  1  0.63372000  0.93740000  0.00529000  1.0
  H  H29  1  0.86627000  0.06259000  0.50529000  1.0
  H  H30  1  0.36627000  0.06259000  0.99471000  1.0
  H  H31  1  0.13372000  0.93740000  0.49470000  1.0
  H  H32  1  0.88009000  0.96000000  0.96306000  1.0
  H  H33  1  0.61990000  0.04000000  0.46306000  1.0
  H  H34  1  0.11990000  0.04001000  0.03694000  1.0
  H  H35  1  0.38009000  0.96000000  0.53694000  1.0
  H  H36  1  0.35533000  0.81065000  0.73578000  1.0
  H  H37  1  0.14467000  0.18935000  0.23578000  1.0
  H  H38  1  0.64468000  0.18935000  0.26422000  1.0
  H  H39  1  0.85532000  0.81065000  0.76422000  1.0
  H  H40  1  0.44133000  0.69074000  0.69580000  1.0
  H  H41  1  0.05868000  0.30925000  0.19580000  1.0
  H  H42  1  0.55868000  0.30926000  0.30420000  1.0
  H  H43  1  0.94132000  0.69074000  0.80420000  1.0
  H  H44  1  0.68306000  0.67229000  0.84870000  1.0
  H  H45  1  0.81695000  0.32771000  0.34871000  1.0
  H  H46  1  0.31694000  0.32772000  0.15130000  1.0
  H  H47  1  0.18306000  0.67229000  0.65130000  1.0
  H  H48  1  0.60206000  0.79482000  0.88656000  1.0
  H  H49  1  0.89795000  0.20518000  0.38656000  1.0
  H  H50  1  0.39795000  0.20519000  0.11344000  1.0
  H  H51  1  0.10206000  0.79482000  0.61344000  1.0
  H  H52  1  0.63533000  0.64971000  0.66003000  1.0
  H  H53  1  0.86468000  0.35029000  0.16003000  1.0
  H  H54  1  0.36467000  0.35029000  0.33997000  1.0
  H  H55  1  0.13532000  0.64971000  0.83997000  1.0
  H  H56  1  0.80834000  0.43031000  0.68267000  1.0
  H  H57  1  0.69165000  0.56968000  0.18266000  1.0
  H  H58  1  0.19164000  0.56969000  0.31734000  1.0
  H  H59  1  0.30834000  0.43031000  0.81733000  1.0
  H  H60  1  0.74808000  0.43041000  0.78539000  1.0
  H  H61  1  0.75192000  0.56959000  0.28539000  1.0
  H  H62  1  0.25192000  0.56959000  0.21461000  1.0
  H  H63  1  0.24807000  0.43041000  0.71461000  1.0
  H  H64  1  0.63151000  0.53864000  0.82433000  1.0
  H  H65  1  0.86849000  0.46136000  0.32433000  1.0
  H  H66  1  0.36849000  0.46136000  0.17567000  1.0
  H  H67  1  0.13150000  0.53864000  0.67567000  1.0
  H  H68  1  0.43576000  0.99308000  0.92022000  1.0
  H  H69  1  0.06425000  0.00692000  0.42022000  1.0
  H  H70  1  0.56424000  0.00692000  0.07978000  1.0
  H  H71  1  0.93576000  0.99308000  0.57978000  1.0
  H  H72  1  0.64278000  0.10891000  0.94187000  1.0
  H  H73  1  0.85721000  0.89109000  0.44187000  1.0
  H  H74  1  0.35722000  0.89109000  0.05813000  1.0
  H  H75  1  0.14278000  0.10891000  0.55813000  1.0
  H  H76  1  0.88109000  0.04234000  0.79991000  1.0
  H  H77  1  0.61891000  0.95767000  0.29992000  1.0
  H  H78  1  0.11891000  0.95766000  0.20008000  1.0
  H  H79  1  0.38109000  0.04234000  0.70009000  1.0
  H  H80  1  0.67564000  0.92572000  0.77882000  1.0
  H  H81  1  0.82436000  0.07428000  0.27882000  1.0
  H  H82  1  0.32436000  0.07428000  0.22118000  1.0
  H  H83  1  0.17564000  0.92572000  0.72118000  1.0
  H  H84  1  0.07171000  0.09095000  0.85826000  1.0
  H  H85  1  0.42828000  0.90905000  0.35826000  1.0
  H  H86  1  0.92829000  0.90905000  0.14174000  1.0
  H  H87  1  0.57171000  0.09095000  0.64174000  1.0
  H  H88  1  0.27885000  0.20769000  0.87900000  1.0
  H  H89  1  0.22114000  0.79231000  0.37900000  1.0
  H  H90  1  0.72115000  0.79231000  0.12101000  1.0
  H  H91  1  0.77885000  0.20768000  0.62100000  1.0
  H  H92  1  0.23147000  0.33932000  0.92084000  1.0
  H  H93  1  0.26852000  0.66068000  0.42084000  1.0
  H  H94  1  0.76852000  0.66068000  0.07916000  1.0
  H  H95  1  0.73148000  0.33932000  0.57916000  1.0
  H  H96  1  0.76858000  0.23722000  0.91604000  1.0
  H  H97  1  0.73142000  0.76278000  0.41604000  1.0
  H  H98  1  0.23142000  0.76278000  0.08396000  1.0
  H  H99  1  0.26858000  0.23723000  0.58396000  1.0
  H  H100  1  0.50411000  0.42779000  0.41371000  1.0
  H  H101  1  0.99589000  0.57221000  0.91371000  1.0
  H  H102  1  0.49590000  0.57221000  0.58629000  1.0
  H  H103  1  0.00410000  0.42779000  0.08629000  1.0
  H  H104  1  0.63259000  0.46278000  0.37094000  1.0
  H  H105  1  0.86742000  0.53722000  0.87094000  1.0
  H  H106  1  0.36742000  0.53722000  0.62906000  1.0
  H  H107  1  0.13259000  0.46278000  0.12906000  1.0
  H  H108  1  0.00485000  0.53093000  0.40343000  1.0
  H  H109  1  0.49515000  0.46907000  0.90343000  1.0
  H  H110  1  0.99516000  0.46907000  0.59657000  1.0
  H  H111  1  0.50485000  0.53093000  0.09657000  1.0
  H  H112  1  0.92708000  0.60736000  0.39890000  1.0
  H  H113  1  0.57291000  0.39264000  0.89889000  1.0
  H  H114  1  0.07292000  0.39263000  0.60110000  1.0
  H  H115  1  0.42708000  0.60736000  0.10110000  1.0
  C  C116  1  0.29093000  0.86733000  0.86471000  1.0
  C  C117  1  0.20908000  0.13267000  0.36471000  1.0
  C  C118  1  0.70907000  0.13268000  0.13529000  1.0
  C  C119  1  0.79093000  0.86733000  0.63529000  1.0
  C  C120  1  0.24043000  0.79551000  0.89706000  1.0
  C  C121  1  0.25957000  0.20449000  0.39706000  1.0
  C  C122  1  0.75957000  0.20450000  0.10293000  1.0
  C  C123  1  0.74044000  0.79551000  0.60294000  1.0
  C  C124  1  0.10572000  0.78337000  0.92451000  1.0
  C  C125  1  0.39428000  0.21663000  0.42450000  1.0
  C  C126  1  0.89428000  0.21663000  0.07549000  1.0
  C  C127  1  0.60573000  0.78338000  0.57549000  1.0
  C  C128  1  0.01732000  0.84227000  0.92086000  1.0
  C  C129  1  0.48267000  0.15773000  0.42086000  1.0
  C  C130  1  0.98267000  0.15773000  0.07914000  1.0
  C  C131  1  0.51733000  0.84227000  0.57914000  1.0
  C  C132  1  0.06902000  0.91377000  0.88814000  1.0
  C  C133  1  0.43099000  0.08623000  0.38813000  1.0
  C  C134  1  0.93098000  0.08623000  0.11186000  1.0
  C  C135  1  0.56902000  0.91377000  0.61186000  1.0
  C  C136  1  0.20308000  0.92627000  0.86035000  1.0
  C  C137  1  0.29693000  0.07373000  0.36035000  1.0
  C  C138  1  0.79692000  0.07374000  0.13964000  1.0
  C  C139  1  0.70308000  0.92627000  0.63965000  1.0
  C  C140  1  0.87341000  0.82924000  0.94915000  1.0
  C  C141  1  0.62660000  0.17076000  0.44915000  1.0
  C  C142  1  0.12659000  0.17076000  0.05084000  1.0
  C  C143  1  0.37341000  0.82924000  0.55085000  1.0
  C  C144  1  0.78865000  0.74868000  0.95690000  1.0
  C  C145  1  0.71135000  0.25132000  0.45690000  1.0
  C  C146  1  0.21135000  0.25133000  0.04309000  1.0
  C  C147  1  0.28866000  0.74868000  0.54310000  1.0
  C  C148  1  0.64831000  0.73575000  0.98056000  1.0
  C  C149  1  0.85169000  0.26425000  0.48056000  1.0
  C  C150  1  0.35168000  0.26425000  0.01944000  1.0
  C  C151  1  0.14832000  0.73574000  0.51944000  1.0
  C  C152  1  0.59143000  0.80380000  0.99794000  1.0
  C  C153  1  0.90857000  0.19619000  0.49794000  1.0
  C  C154  1  0.40857000  0.19619000  0.00206000  1.0
  C  C155  1  0.09143000  0.80380000  0.50207000  1.0
  C  C156  1  0.67625000  0.88397000  0.99181000  1.0
  C  C157  1  0.82375000  0.11602000  0.49181000  1.0
  C  C158  1  0.32375000  0.11603000  0.00819000  1.0
  C  C159  1  0.17625000  0.88397000  0.50819000  1.0
  C  C160  1  0.81553000  0.89676000  0.96760000  1.0
  C  C161  1  0.68447000  0.10324000  0.46759000  1.0
  C  C162  1  0.18447000  0.10324000  0.03240000  1.0
  C  C163  1  0.31553000  0.89676000  0.53240000  1.0
  C  C164  1  0.55761000  0.64952000  0.98597000  1.0
  C  C165  1  0.94239000  0.35047000  0.48598000  1.0
  C  C166  1  0.44239000  0.35048000  0.01402000  1.0
  C  C167  1  0.05763000  0.64952000  0.51403000  1.0
  C  C168  1  0.47273000  0.80928000  0.81387000  1.0
  C  C169  1  0.02727000  0.19072000  0.31387000  1.0
  C  C170  1  0.52727000  0.19072000  0.18613000  1.0
  C  C171  1  0.97273000  0.80928000  0.68613000  1.0
  C  C172  1  0.42728000  0.78004000  0.76021000  1.0
  C  C173  1  0.07272000  0.21996000  0.26021000  1.0
  C  C174  1  0.57272000  0.21996000  0.23979000  1.0
  C  C175  1  0.92728000  0.78004000  0.73980000  1.0
  C  C176  1  0.47608000  0.71249000  0.73801000  1.0
  C  C177  1  0.02392000  0.28751000  0.23801000  1.0
  C  C178  1  0.52393000  0.28751000  0.26199000  1.0
  C  C179  1  0.97607000  0.71249000  0.76199000  1.0
  C  C180  1  0.56804000  0.67219000  0.76928000  1.0
  C  C181  1  0.93197000  0.32781000  0.26928000  1.0
  C  C182  1  0.43197000  0.32781000  0.23072000  1.0
  C  C183  1  0.06803000  0.67219000  0.73072000  1.0
  C  C184  1  0.61042000  0.70169000  0.82368000  1.0
  C  C185  1  0.88959000  0.29831000  0.32368000  1.0
  C  C186  1  0.38958000  0.29831000  0.17632000  1.0
  C  C187  1  0.11041000  0.70169000  0.67632000  1.0
  C  C188  1  0.56515000  0.77023000  0.84532000  1.0
  C  C189  1  0.93486000  0.22977000  0.34532000  1.0
  C  C190  1  0.43486000  0.22978000  0.15468000  1.0
  C  C191  1  0.06514000  0.77023000  0.65468000  1.0
  C  C192  1  0.62650000  0.60338000  0.74533000  1.0
  C  C193  1  0.87350000  0.39663000  0.24533000  1.0
  C  C194  1  0.37350000  0.39663000  0.25467000  1.0
  C  C195  1  0.12649000  0.60337000  0.75467000  1.0
  C  C196  1  0.65677000  0.60104000  0.68776000  1.0
  C  C197  1  0.84323000  0.39896000  0.18775000  1.0
  C  C198  1  0.34323000  0.39896000  0.31225000  1.0
  C  C199  1  0.15676000  0.60104000  0.81224000  1.0
  C  C200  1  0.72160000  0.53904000  0.66535000  1.0
  C  C201  1  0.77840000  0.46095000  0.16535000  1.0
  C  C202  1  0.27840000  0.46096000  0.33465000  1.0
  C  C203  1  0.22160000  0.53904000  0.83465000  1.0
  C  C204  1  0.75782000  0.47822000  0.70054000  1.0
  C  C205  1  0.74217000  0.52178000  0.20054000  1.0
  C  C206  1  0.24217000  0.52178000  0.29946000  1.0
  C  C207  1  0.25782000  0.47822000  0.79946000  1.0
  C  C208  1  0.72454000  0.47882000  0.75776000  1.0
  C  C209  1  0.77546000  0.52118000  0.25776000  1.0
  C  C210  1  0.27545000  0.52118000  0.24224000  1.0
  C  C211  1  0.22453000  0.47882000  0.74224000  1.0
  C  C212  1  0.65935000  0.54049000  0.77981000  1.0
  C  C213  1  0.84065000  0.45951000  0.27981000  1.0
  C  C214  1  0.34065000  0.45952000  0.22019000  1.0
  C  C215  1  0.15934000  0.54048000  0.72019000  1.0
  C  C216  1  0.74632000  0.53711000  0.60377000  1.0
  C  C217  1  0.75367000  0.46289000  0.10377000  1.0
  C  C218  1  0.25367000  0.46289000  0.39623000  1.0
  C  C219  1  0.24632000  0.53711000  0.89623000  1.0
  C  C220  1  0.54023000  0.95044000  0.84811000  1.0
  C  C221  1  0.95977000  0.04956000  0.34810000  1.0
  C  C222  1  0.45977000  0.04956000  0.15189000  1.0
  C  C223  1  0.04023000  0.95044000  0.65190000  1.0
  C  C224  1  0.53253000  0.00458000  0.89330000  1.0
  C  C225  1  0.96748000  0.99542000  0.39330000  1.0
  C  C226  1  0.46747000  0.99542000  0.10669000  1.0
  C  C227  1  0.03253000  0.00458000  0.60670000  1.0
  C  C228  1  0.64970000  0.07017000  0.90513000  1.0
  C  C229  1  0.85030000  0.92983000  0.40513000  1.0
  C  C230  1  0.35031000  0.92983000  0.09487000  1.0
  C  C231  1  0.14970000  0.07017000  0.59487000  1.0
  C  C232  1  0.77911000  0.08515000  0.87278000  1.0
  C  C233  1  0.72089000  0.91485000  0.37278000  1.0
  C  C234  1  0.22090000  0.91485000  0.12722000  1.0
  C  C235  1  0.27911000  0.08515000  0.62722000  1.0
  C  C236  1  0.78451000  0.03147000  0.82712000  1.0
  C  C237  1  0.71549000  0.96853000  0.32712000  1.0
  C  C238  1  0.21550000  0.96853000  0.17288000  1.0
  C  C239  1  0.28451000  0.03147000  0.67288000  1.0
  C  C240  1  0.66815000  0.96593000  0.81465000  1.0
  C  C241  1  0.83185000  0.03407000  0.31465000  1.0
  C  C242  1  0.33185000  0.03407000  0.18535000  1.0
  C  C243  1  0.16815000  0.96594000  0.68535000  1.0
  C  C244  1  0.04955000  0.14850000  0.87509000  1.0
  C  C245  1  0.45045000  0.85150000  0.37509000  1.0
  C  C246  1  0.95046000  0.85150000  0.12491000  1.0
  C  C247  1  0.54954000  0.14850000  0.62491000  1.0
  C  C248  1  0.16685000  0.21437000  0.88696000  1.0
  C  C249  1  0.33315000  0.78563000  0.38696000  1.0
  C  C250  1  0.83315000  0.78563000  0.11304000  1.0
  C  C251  1  0.66685000  0.21437000  0.61304000  1.0
  C  C252  1  0.14161000  0.28740000  0.91054000  1.0
  C  C253  1  0.35838000  0.71260000  0.41054000  1.0
  C  C254  1  0.85839000  0.71260000  0.08947000  1.0
  C  C255  1  0.64161000  0.28740000  0.58946000  1.0
  C  C256  1  0.99719000  0.29459000  0.92120000  1.0
  C  C257  1  0.50280000  0.70541000  0.42120000  1.0
  C  C258  1  0.00281000  0.70541000  0.07880000  1.0
  C  C259  1  0.49719000  0.29459000  0.57880000  1.0
  C  C260  1  0.87973000  0.22896000  0.90831000  1.0
  C  C261  1  0.62026000  0.77104000  0.40831000  1.0
  C  C262  1  0.12027000  0.77104000  0.09169000  1.0
  C  C263  1  0.37973000  0.22896000  0.59169000  1.0
  C  C264  1  0.90354000  0.15442000  0.88562000  1.0
  C  C265  1  0.59646000  0.84558000  0.38562000  1.0
  C  C266  1  0.09647000  0.84558000  0.11438000  1.0
  C  C267  1  0.40354000  0.15442000  0.61438000  1.0
  C  C268  1  0.96711000  0.37154000  0.94728000  1.0
  C  C269  1  0.53290000  0.62846000  0.44729000  1.0
  C  C270  1  0.03290000  0.62846000  0.05271000  1.0
  C  C271  1  0.46711000  0.37154000  0.55271000  1.0
  N  N272  1  0.42847000  0.88051000  0.83687000  1.0
  N  N273  1  0.07153000  0.11949000  0.33686000  1.0
  N  N274  1  0.57153000  0.11949000  0.16313000  1.0
  N  N275  1  0.92847000  0.88051000  0.66314000  1.0
  O  O276  1  0.61750000  0.58841000  0.97560000  1.0
  O  O277  1  0.88250000  0.41158000  0.47561000  1.0
  O  O278  1  0.38250000  0.41159000  0.02439000  1.0
  O  O279  1  0.11752000  0.58841000  0.52441000  1.0
  O  O280  1  0.42440000  0.64034000  0.00097000  1.0
  O  O281  1  0.07561000  0.35965000  0.50097000  1.0
  O  O282  1  0.57561000  0.35965000  0.99903000  1.0
  O  O283  1  0.92441000  0.64033000  0.49904000  1.0
  O  O284  1  0.83544000  0.49603000  0.58269000  1.0
  O  O285  1  0.66455000  0.50397000  0.08269000  1.0
  O  O286  1  0.16455000  0.50397000  0.41731000  1.0
  O  O287  1  0.33544000  0.49603000  0.91730000  1.0
  O  O288  1  0.67267000  0.57439000  0.57078000  1.0
  O  O289  1  0.82734000  0.42561000  0.07077000  1.0
  O  O290  1  0.32733000  0.42561000  0.42923000  1.0
  O  O291  1  0.17266000  0.57439000  0.92922000  1.0
  O  O292  1  0.84319000  0.38947000  0.93804000  1.0
  O  O293  1  0.65681000  0.61053000  0.43805000  1.0
  O  O294  1  0.15681000  0.61053000  0.06195000  1.0
  O  O295  1  0.34320000  0.38948000  0.56196000  1.0
  O  O296  1  0.06537000  0.41507000  0.97862000  1.0
  O  O297  1  0.43463000  0.58494000  0.47862000  1.0
  O  O298  1  0.93463000  0.58493000  0.02138000  1.0
  O  O299  1  0.56537000  0.41507000  0.52138000  1.0
  O  O300  1  0.61258000  0.43486000  0.40711000  1.0
  O  O301  1  0.88742000  0.56514000  0.90711000  1.0
  O  O302  1  0.38742000  0.56514000  0.59289000  1.0
  O  O303  1  0.11258000  0.43486000  0.09289000  1.0
  O  O304  1  0.90735000  0.54695000  0.40030000  1.0
  O  O305  1  0.59265000  0.45305000  0.90030000  1.0
  O  O306  1  0.09266000  0.45305000  0.59970000  1.0
  O  O307  1  0.40735000  0.54695000  0.09970000  1.0
