# generated using pymatgen
data_Ag3H8C18(NO)3
_symmetry_space_group_name_H-M   'P 1'
_cell_length_a   6.85279000
_cell_length_b   11.83410000
_cell_length_c   11.83400000
_cell_angle_alpha   69.94170000
_cell_angle_beta   80.00290000
_cell_angle_gamma   80.00190000
_symmetry_Int_Tables_number   1
_chemical_formula_structural   Ag3H8C18(NO)3
_chemical_formula_sum   'Ag6 H16 C36 N6 O6'
_cell_volume   881.02230672
_cell_formula_units_Z   2
loop_
 _symmetry_equiv_pos_site_id
 _symmetry_equiv_pos_as_xyz
  1  'x, y, z'
loop_
 _atom_site_type_symbol
 _atom_site_label
 _atom_site_symmetry_multiplicity
 _atom_site_fract_x
 _atom_site_fract_y
 _atom_site_fract_z
 _atom_site_occupancy
  Ag  Ag0  1  0.51970000  0.52187000  0.66702000  1.0
  Ag  Ag1  1  0.98031000  0.33299000  0.47813000  1.0
  Ag  Ag2  1  0.48030000  0.47813000  0.33299000  1.0
  Ag  Ag3  1  0.01969000  0.66700000  0.52187000  1.0
  Ag  Ag4  1  0.25001000  0.41841000  0.58159000  1.0
  Ag  Ag5  1  0.74999000  0.58159000  0.41841000  1.0
  H  H6  1  0.31325000  0.70910000  0.84490000  1.0
  H  H7  1  0.18674000  0.15510000  0.29090000  1.0
  H  H8  1  0.68676000  0.29090000  0.15510000  1.0
  H  H9  1  0.81325000  0.84490000  0.70910000  1.0
  H  H10  1  0.18166000  0.80499000  0.00454000  1.0
  H  H11  1  0.31833000  0.99545000  0.19502000  1.0
  H  H12  1  0.81834000  0.19502000  0.99545000  1.0
  H  H13  1  0.68166000  0.00454000  0.80499000  1.0
  H  H14  1  0.83662000  0.78348000  0.10898000  1.0
  H  H15  1  0.66338000  0.89102000  0.21651000  1.0
  H  H16  1  0.16339000  0.21652000  0.89102000  1.0
  H  H17  1  0.33662000  0.10898000  0.78348000  1.0
  H  H18  1  0.61821000  0.66945000  0.05255000  1.0
  H  H19  1  0.88178000  0.94746000  0.33055000  1.0
  H  H20  1  0.38179000  0.33055000  0.94746000  1.0
  H  H21  1  0.11821000  0.05254000  0.66945000  1.0
  C  C22  1  0.17649000  0.52955000  0.68780000  1.0
  C  C23  1  0.32351000  0.31219000  0.47046000  1.0
  C  C24  1  0.82351000  0.47046000  0.31219000  1.0
  C  C25  1  0.67649000  0.68779000  0.52956000  1.0
  C  C26  1  0.11450000  0.58023000  0.76587000  1.0
  C  C27  1  0.38549000  0.23413000  0.41976000  1.0
  C  C28  1  0.88548000  0.41977000  0.23414000  1.0
  C  C29  1  0.61452000  0.76586000  0.58024000  1.0
  C  C30  1  0.04151000  0.63605000  0.85573000  1.0
  C  C31  1  0.45848000  0.14427000  0.36395000  1.0
  C  C32  1  0.95848000  0.36395000  0.14427000  1.0
  C  C33  1  0.54152000  0.85573000  0.63605000  1.0
  C  C34  1  0.16073000  0.70207000  0.88914000  1.0
  C  C35  1  0.33927000  0.11086000  0.29793000  1.0
  C  C36  1  0.83927000  0.29794000  0.11086000  1.0
  C  C37  1  0.66074000  0.88914000  0.70206000  1.0
  C  C38  1  0.08626000  0.75552000  0.97868000  1.0
  C  C39  1  0.41375000  0.02133000  0.24448000  1.0
  C  C40  1  0.91376000  0.24448000  0.02132000  1.0
  C  C41  1  0.58625000  0.97869000  0.75553000  1.0
  C  C42  1  0.89180000  0.74371000  0.03736000  1.0
  C  C43  1  0.60820000  0.96265000  0.25628000  1.0
  C  C44  1  0.10821000  0.25629000  0.96265000  1.0
  C  C45  1  0.39179000  0.03735000  0.74370000  1.0
  C  C46  1  0.76928000  0.67940000  0.00633000  1.0
  C  C47  1  0.73073000  0.99367000  0.32061000  1.0
  C  C48  1  0.23073000  0.32061000  0.99367000  1.0
  C  C49  1  0.26928000  0.00634000  0.67940000  1.0
  C  C50  1  0.84281000  0.62603000  0.91588000  1.0
  C  C51  1  0.65718000  0.08413000  0.37397000  1.0
  C  C52  1  0.15718000  0.37397000  0.08413000  1.0
  C  C53  1  0.34283000  0.91587000  0.62602000  1.0
  C  C54  1  0.71876000  0.56310000  0.88075000  1.0
  C  C55  1  0.78123000  0.11924000  0.43691000  1.0
  C  C56  1  0.28123000  0.43691000  0.11925000  1.0
  C  C57  1  0.21876000  0.88075000  0.56309000  1.0
  N  N58  1  0.61737000  0.51322000  0.84852000  1.0
  N  N59  1  0.88263000  0.15148000  0.48678000  1.0
  N  N60  1  0.38262000  0.48678000  0.15148000  1.0
  N  N61  1  0.11737000  0.84852000  0.51322000  1.0
  N  N62  1  0.75000000  0.25265000  0.74735000  1.0
  N  N63  1  0.25000000  0.74735000  0.25265000  1.0
  O  O64  1  0.75000000  0.34933000  0.65068000  1.0
  O  O65  1  0.25000000  0.65067000  0.34933000  1.0
  O  O66  1  0.59637000  0.24005000  0.82289000  1.0
  O  O67  1  0.90364000  0.17711000  0.75995000  1.0
  O  O68  1  0.40363000  0.75994000  0.17711000  1.0
  O  O69  1  0.09637000  0.82289000  0.24005000  1.0
