# generated using pymatgen
data_AlH24C30(NO2)3
_symmetry_space_group_name_H-M   'P 1'
_cell_length_a   3.95798000
_cell_length_b   15.80830000
_cell_length_c   15.81864806
_cell_angle_alpha   60.33130895
_cell_angle_beta   87.17979025
_cell_angle_gamma   84.76110000
_symmetry_Int_Tables_number   1
_chemical_formula_structural   AlH24C30(NO2)3
_chemical_formula_sum   'Al1 H24 C30 N3 O6'
_cell_volume   856.39934732
_cell_formula_units_Z   1
loop_
 _symmetry_equiv_pos_site_id
 _symmetry_equiv_pos_as_xyz
  1  'x, y, z'
loop_
 _atom_site_type_symbol
 _atom_site_label
 _atom_site_symmetry_multiplicity
 _atom_site_fract_x
 _atom_site_fract_y
 _atom_site_fract_z
 _atom_site_occupancy
  Al  Al0  1  0.03549000  0.99642000  0.50144000  1.0
  H  H1  1  0.46255000  0.54565000  0.59758000  1.0
  H  H2  1  0.70128000  0.54134000  0.86123000  1.0
  H  H3  1  0.65883000  0.35106000  0.60054000  1.0
  H  H4  1  0.28034000  0.10487000  0.85238000  1.0
  H  H5  1  0.34697000  0.09984000  0.04766000  1.0
  H  H6  1  0.65593000  0.35087000  0.05029000  1.0
  H  H7  1  0.51450000  0.78464000  0.78745000  1.0
  H  H8  1  0.94337000  0.78522000  0.75049000  1.0
  H  H9  1  0.80926000  0.68581000  0.86197000  1.0
  H  H10  1  0.67032000  0.78005000  0.43314000  1.0
  H  H11  1  0.23789000  0.79833000  0.45809000  1.0
  H  H12  1  0.38315000  0.69274000  0.44949000  1.0
  H  H13  1  0.78955000  0.34838000  0.45593000  1.0
  H  H14  1  0.49024000  0.28858000  0.42796000  1.0
  H  H15  1  0.90347000  0.23209000  0.46604000  1.0
  H  H16  1  0.46660000  0.93134000  0.78723000  1.0
  H  H17  1  0.06530000  0.97676000  0.73076000  1.0
  H  H18  1  0.13317000  0.96635000  0.84611000  1.0
  H  H19  1  0.30121000  0.95460000  0.18370000  1.0
  H  H20  1  0.06061000  0.97189000  0.27265000  1.0
  H  H21  1  0.48686000  0.92612000  0.29612000  1.0
  H  H22  1  0.96271000  0.25328000  0.27233000  1.0
  H  H23  1  0.53668000  0.26744000  0.30257000  1.0
  H  H24  1  0.70139000  0.35687000  0.18936000  1.0
  C  C25  1  0.53246000  0.07037000  0.35090000  1.0
  C  C26  1  0.57407000  0.84499000  0.57940000  1.0
  C  C27  1  0.49512000  0.07605000  0.57482000  1.0
  C  C28  1  0.48572000  0.28566000  0.78684000  1.0
  C  C29  1  0.55520000  0.42643000  0.78830000  1.0
  C  C30  1  0.50635000  0.28465000  0.93070000  1.0
  C  C31  1  0.52218000  0.68694000  0.58227000  1.0
  C  C32  1  0.51861000  0.58556000  0.63438000  1.0
  C  C33  1  0.57881000  0.53312000  0.73470000  1.0
  C  C34  1  0.65091000  0.58308000  0.78333000  1.0
  C  C35  1  0.65690000  0.68451000  0.73376000  1.0
  C  C36  1  0.58813000  0.73577000  0.63320000  1.0
  C  C37  1  0.57423000  0.27748000  0.63433000  1.0
  C  C38  1  0.57912000  0.22841000  0.58135000  1.0
  C  C39  1  0.47480000  0.13255000  0.62842000  1.0
  C  C40  1  0.36320000  0.08697000  0.72605000  1.0
  C  C41  1  0.36397000  0.13838000  0.77671000  1.0
  C  C42  1  0.47091000  0.23311000  0.73189000  1.0
  C  C43  1  0.41664000  0.13380000  0.08910000  1.0
  C  C44  1  0.41459000  0.08099000  0.19059000  1.0
  C  C45  1  0.51762000  0.12613000  0.24262000  1.0
  C  C46  1  0.60734000  0.22432000  0.19191000  1.0
  C  C47  1  0.59280000  0.27505000  0.09055000  1.0
  C  C48  1  0.50393000  0.23047000  0.03832000  1.0
  C  C49  1  0.73558000  0.73764000  0.78650000  1.0
  C  C50  1  0.44913000  0.74227000  0.47495000  1.0
  C  C51  1  0.69745000  0.27708000  0.47722000  1.0
  C  C52  1  0.25027000  0.98487000  0.77532000  1.0
  C  C53  1  0.31183000  0.97777000  0.23840000  1.0
  C  C54  1  0.70667000  0.27841000  0.24171000  1.0
  N  N55  1  0.52869000  0.38171000  0.73571000  1.0
  N  N56  1  0.55615000  0.38031000  0.88621000  1.0
  N  N57  1  0.46196000  0.23439000  0.88451000  1.0
  O  O58  1  0.74791000  0.01332000  0.59360000  1.0
  O  O59  1  0.75921000  0.08814000  0.39359000  1.0
  O  O60  1  0.81030000  0.88633000  0.51866000  1.0
  O  O61  1  0.26343000  0.09290000  0.51408000  1.0
  O  O62  1  0.32247000  0.89057000  0.59710000  1.0
  O  O63  1  0.31772000  0.00660000  0.39710000  1.0
