# generated using pymatgen
data_MnH12C13N8
_symmetry_space_group_name_H-M   'P 1'
_cell_length_a   7.35663000
_cell_length_b   9.90437000
_cell_length_c   10.03940000
_cell_angle_alpha   97.77920000
_cell_angle_beta   102.50300000
_cell_angle_gamma   95.01610000
_symmetry_Int_Tables_number   1
_chemical_formula_structural   MnH12C13N8
_chemical_formula_sum   'Mn2 H24 C26 N16'
_cell_volume   702.40679077
_cell_formula_units_Z   2
loop_
 _symmetry_equiv_pos_site_id
 _symmetry_equiv_pos_as_xyz
  1  'x, y, z'
loop_
 _atom_site_type_symbol
 _atom_site_label
 _atom_site_symmetry_multiplicity
 _atom_site_fract_x
 _atom_site_fract_y
 _atom_site_fract_z
 _atom_site_occupancy
  Mn  Mn0  1  0.78839000  0.51273000  0.38903000  1.0
  Mn  Mn1  1  0.21158000  0.48729000  0.61096000  1.0
  H  H2  1  0.52758000  0.22971000  0.24078000  1.0
  H  H3  1  0.47242000  0.77029000  0.75922000  1.0
  H  H4  1  0.41151000  0.09624000  0.00129000  1.0
  H  H5  1  0.58850000  0.90377000  0.99871000  1.0
  H  H6  1  0.50556000  0.19335000  0.80276000  1.0
  H  H7  1  0.49445000  0.80665000  0.19724000  1.0
  H  H8  1  0.70855000  0.41947000  0.85362000  1.0
  H  H9  1  0.29146000  0.58052000  0.14638000  1.0
  H  H10  1  0.88367000  0.61218000  0.01958000  1.0
  H  H11  1  0.11634000  0.38781000  0.98043000  1.0
  H  H12  1  0.91644000  0.81967000  0.05256000  1.0
  H  H13  1  0.08356000  0.18033000  0.94744000  1.0
  H  H14  1  0.08989000  0.05491000  0.12228000  1.0
  H  H15  1  0.91012000  0.94508000  0.87772000  1.0
  H  H16  1  0.26151000  0.13560000  0.36378000  1.0
  H  H17  1  0.73850000  0.86440000  0.63622000  1.0
  H  H18  1  0.07216000  0.75290000  0.47601000  1.0
  H  H19  1  0.92784000  0.24710000  0.52399000  1.0
  H  H20  1  0.32910000  0.10731000  0.60306000  1.0
  H  H21  1  0.67091000  0.89269000  0.39693000  1.0
  H  H22  1  0.42357000  0.94813000  0.60361000  1.0
  H  H23  1  0.57644000  0.05187000  0.39639000  1.0
  H  H24  1  0.21131000  0.96616000  0.65676000  1.0
  H  H25  1  0.78870000  0.03384000  0.34324000  1.0
  C  C26  1  0.56523000  0.26663000  0.15172000  1.0
  C  C27  1  0.43477000  0.73336000  0.84828000  1.0
  C  C28  1  0.50225000  0.19290000  0.01811000  1.0
  C  C29  1  0.49776000  0.80710000  0.98190000  1.0
  C  C30  1  0.55423000  0.24639000  0.90852000  1.0
  C  C31  1  0.44578000  0.75360000  0.09148000  1.0
  C  C32  1  0.66768000  0.37180000  0.93610000  1.0
  C  C33  1  0.33233000  0.62820000  0.06390000  1.0
  C  C34  1  0.72541000  0.43929000  0.07275000  1.0
  C  C35  1  0.27459000  0.56071000  0.92725000  1.0
  C  C36  1  0.84137000  0.57150000  0.10608000  1.0
  C  C37  1  0.15863000  0.42850000  0.89392000  1.0
  C  C38  1  0.98738000  0.76961000  0.26069000  1.0
  C  C39  1  0.01262000  0.23039000  0.73930000  1.0
  C  C40  1  0.99172000  0.85486000  0.15943000  1.0
  C  C41  1  0.00828000  0.14513000  0.84057000  1.0
  C  C42  1  0.09003000  0.98585000  0.19806000  1.0
  C  C43  1  0.90997000  0.01414000  0.80193000  1.0
  C  C44  1  0.18710000  0.03198000  0.33506000  1.0
  C  C45  1  0.81290000  0.96802000  0.66494000  1.0
  C  C46  1  0.18527000  0.94821000  0.43671000  1.0
  C  C47  1  0.81473000  0.05179000  0.56329000  1.0
  C  C48  1  0.08077000  0.81842000  0.39824000  1.0
  C  C49  1  0.91923000  0.18158000  0.60175000  1.0
  C  C50  1  0.29259000  0.99553000  0.58324000  1.0
  C  C51  1  0.70741000  0.00447000  0.41675000  1.0
  N  N52  1  0.67373000  0.38712000  0.17903000  1.0
  N  N53  1  0.32627000  0.61288000  0.82098000  1.0
  N  N54  1  0.88721000  0.63684000  0.23152000  1.0
  N  N55  1  0.11278000  0.36316000  0.76848000  1.0
  N  N56  1  0.58644000  0.65178000  0.39597000  1.0
  N  N57  1  0.41356000  0.34821000  0.60403000  1.0
  N  N58  1  0.47586000  0.64392000  0.46621000  1.0
  N  N59  1  0.52413000  0.35607000  0.53380000  1.0
  N  N60  1  0.36640000  0.64057000  0.53662000  1.0
  N  N61  1  0.63359000  0.35944000  0.46338000  1.0
  N  N62  1  0.95286000  0.59191000  0.59974000  1.0
  N  N63  1  0.04714000  0.40809000  0.40027000  1.0
  N  N64  1  0.89648000  0.62924000  0.70113000  1.0
  N  N65  1  0.10352000  0.37076000  0.29886000  1.0
  N  N66  1  0.84529000  0.66539000  0.80107000  1.0
  N  N67  1  0.15470000  0.33462000  0.19893000  1.0
