# generated using pymatgen
data_HgH9C12I2N2Cl
_symmetry_space_group_name_H-M   'P 1'
_cell_length_a   4.80418000
_cell_length_b   16.95270000
_cell_length_c   18.12450000
_cell_angle_alpha   89.99960000
_cell_angle_beta   90.00050000
_cell_angle_gamma   90.00000000
_symmetry_Int_Tables_number   1
_chemical_formula_structural   HgH9C12I2N2Cl
_chemical_formula_sum   'Hg4 H36 C48 I8 N8 Cl4'
_cell_volume   1476.12855693
_cell_formula_units_Z   4
loop_
 _symmetry_equiv_pos_site_id
 _symmetry_equiv_pos_as_xyz
  1  'x, y, z'
loop_
 _atom_site_type_symbol
 _atom_site_label
 _atom_site_symmetry_multiplicity
 _atom_site_fract_x
 _atom_site_fract_y
 _atom_site_fract_z
 _atom_site_occupancy
  Hg  Hg0  1  0.00173000  0.85864000  0.52233000  1.0
  Hg  Hg1  1  0.49827000  0.14136000  0.02233000  1.0
  Hg  Hg2  1  0.50172000  0.64136000  0.47767000  1.0
  Hg  Hg3  1  0.99826000  0.35864000  0.97767000  1.0
  H  H4  1  0.63281000  0.01282000  0.55759000  1.0
  H  H5  1  0.86720000  0.98718000  0.05759000  1.0
  H  H6  1  0.13281000  0.48717000  0.44241000  1.0
  H  H7  1  0.36720000  0.51283000  0.94241000  1.0
  H  H8  1  0.27375000  0.10438000  0.50535000  1.0
  H  H9  1  0.22625000  0.89562000  0.00535000  1.0
  H  H10  1  0.77376000  0.39561000  0.49465000  1.0
  H  H11  1  0.72626000  0.60439000  0.99465000  1.0
  H  H12  1  0.37679000  0.98553000  0.29617000  1.0
  H  H13  1  0.12324000  0.01448000  0.79617000  1.0
  H  H14  1  0.87676000  0.51448000  0.70383000  1.0
  H  H15  1  0.62322000  0.48552000  0.20383000  1.0
  H  H16  1  0.72533000  0.89799000  0.35716000  1.0
  H  H17  1  0.77470000  0.10201000  0.85716000  1.0
  H  H18  1  0.22530000  0.60201000  0.64284000  1.0
  H  H19  1  0.27468000  0.39799000  0.14284000  1.0
  H  H20  1  0.05574000  0.09740000  0.30289000  1.0
  H  H21  1  0.44426000  0.90260000  0.80289000  1.0
  H  H22  1  0.55573000  0.40260000  0.69711000  1.0
  H  H23  1  0.94426000  0.59740000  0.19711000  1.0
  H  H24  1  0.73291000  0.16108000  0.25983000  1.0
  H  H25  1  0.76708000  0.83892000  0.75983000  1.0
  H  H26  1  0.23291000  0.33892000  0.74017000  1.0
  H  H27  1  0.26709000  0.66108000  0.24017000  1.0
  H  H28  1  0.37745000  0.25541000  0.21916000  1.0
  H  H29  1  0.12254000  0.74460000  0.71916000  1.0
  H  H30  1  0.87745000  0.24459000  0.78084000  1.0
  H  H31  1  0.62254000  0.75540000  0.28084000  1.0
  H  H32  1  0.34586000  0.35584000  0.43801000  1.0
  H  H33  1  0.15414000  0.64415000  0.93801000  1.0
  H  H34  1  0.84586000  0.14415000  0.56199000  1.0
  H  H35  1  0.65413000  0.85584000  0.06199000  1.0
  H  H36  1  0.70058000  0.25974000  0.47962000  1.0
  H  H37  1  0.79942000  0.74026000  0.97961000  1.0
  H  H38  1  0.20057000  0.24026000  0.52038000  1.0
  H  H39  1  0.29943000  0.75974000  0.02039000  1.0
  C  C40  1  0.56899000  0.00912000  0.49987000  1.0
  C  C41  1  0.93102000  0.99088000  0.99987000  1.0
  C  C42  1  0.06898000  0.49088000  0.50013000  1.0
  C  C43  1  0.43102000  0.50913000  0.00013000  1.0
  C  C44  1  0.37052000  0.05968000  0.47083000  1.0
  C  C45  1  0.12949000  0.94031000  0.97082000  1.0
  C  C46  1  0.87052000  0.44031000  0.52918000  1.0
  C  C47  1  0.62949000  0.55969000  0.02917000  1.0
  C  C48  1  0.29418000  0.05247000  0.39636000  1.0
  C  C49  1  0.20583000  0.94753000  0.89636000  1.0
  C  C50  1  0.79417000  0.44753000  0.60364000  1.0
  C  C51  1  0.70582000  0.55247000  0.10364000  1.0
  C  C52  1  0.42623000  0.99373000  0.35439000  1.0
  C  C53  1  0.07379000  0.00627000  0.85439000  1.0
  C  C54  1  0.92621000  0.50627000  0.64561000  1.0
  C  C55  1  0.57378000  0.49373000  0.14561000  1.0
  C  C56  1  0.62106000  0.94478000  0.38797000  1.0
  C  C57  1  0.87896000  0.05523000  0.88797000  1.0
  C  C58  1  0.12104000  0.55523000  0.61203000  1.0
  C  C59  1  0.37894000  0.44477000  0.11203000  1.0
  C  C60  1  0.08555000  0.10419000  0.36289000  1.0
  C  C61  1  0.41446000  0.89581000  0.86289000  1.0
  C  C62  1  0.58553000  0.39581000  0.63711000  1.0
  C  C63  1  0.91446000  0.60419000  0.13711000  1.0
  C  C64  1  0.74953000  0.20475000  0.37305000  1.0
  C  C65  1  0.75047000  0.79525000  0.87305000  1.0
  C  C66  1  0.24952000  0.29525000  0.62694000  1.0
  C  C67  1  0.25047000  0.70475000  0.12695000  1.0
  C  C68  1  0.65393000  0.20391000  0.29954000  1.0
  C  C69  1  0.84607000  0.79609000  0.79954000  1.0
  C  C70  1  0.15393000  0.29609000  0.70046000  1.0
  C  C71  1  0.34608000  0.70391000  0.20046000  1.0
  C  C72  1  0.45263000  0.25718000  0.27588000  1.0
  C  C73  1  0.04736000  0.74282000  0.77588000  1.0
  C  C74  1  0.95263000  0.24282000  0.72412000  1.0
  C  C75  1  0.54737000  0.75718000  0.22412000  1.0
  C  C76  1  0.34611000  0.31265000  0.32558000  1.0
  C  C77  1  0.15388000  0.68735000  0.82558000  1.0
  C  C78  1  0.84611000  0.18735000  0.67442000  1.0
  C  C79  1  0.65389000  0.81265000  0.17442000  1.0
  C  C80  1  0.43353000  0.31375000  0.39901000  1.0
  C  C81  1  0.06647000  0.68625000  0.89901000  1.0
  C  C82  1  0.93352000  0.18625000  0.60099000  1.0
  C  C83  1  0.56648000  0.81375000  0.10099000  1.0
  C  C84  1  0.63285000  0.25974000  0.42222000  1.0
  C  C85  1  0.86715000  0.74025000  0.92222000  1.0
  C  C86  1  0.13284000  0.24026000  0.57778000  1.0
  C  C87  1  0.36715000  0.75974000  0.07778000  1.0
  I  I88  1  0.11501000  0.93856000  0.64718000  1.0
  I  I89  1  0.38500000  0.06144000  0.14718000  1.0
  I  I90  1  0.61501000  0.56144000  0.35282000  1.0
  I  I91  1  0.88498000  0.43856000  0.85282000  1.0
  I  I92  1  0.12920000  0.77015000  0.40164000  1.0
  I  I93  1  0.37078000  0.22985000  0.90163000  1.0
  I  I94  1  0.62920000  0.72985000  0.59836000  1.0
  I  I95  1  0.87080000  0.27015000  0.09836000  1.0
  N  N96  1  0.69064000  0.95216000  0.45938000  1.0
  N  N97  1  0.80938000  0.04784000  0.95938000  1.0
  N  N98  1  0.19062000  0.54784000  0.54062000  1.0
  N  N99  1  0.30937000  0.45216000  0.04062000  1.0
  N  N100  1  0.95086000  0.15415000  0.40286000  1.0
  N  N101  1  0.54915000  0.84585000  0.90286000  1.0
  N  N102  1  0.45085000  0.34585000  0.59714000  1.0
  N  N103  1  0.04915000  0.65415000  0.09714000  1.0
  Cl  Cl104  1  0.09983000  0.38043000  0.29652000  1.0
  Cl  Cl105  1  0.40016000  0.61957000  0.79652000  1.0
  Cl  Cl106  1  0.59984000  0.11957000  0.70348000  1.0
  Cl  Cl107  1  0.90016000  0.88043000  0.20348000  1.0
