# generated using pymatgen
data_ZnH24C30S(NO)4
_symmetry_space_group_name_H-M   'P 1'
_cell_length_a   11.20800000
_cell_length_b   15.02130000
_cell_length_c   19.28060000
_cell_angle_alpha   104.23100000
_cell_angle_beta   106.37800000
_cell_angle_gamma   102.25100000
_symmetry_Int_Tables_number   1
_chemical_formula_structural   ZnH24C30S(NO)4
_chemical_formula_sum   'Zn4 H96 C120 S4 N16 O16'
_cell_volume   2877.13766410
_cell_formula_units_Z   4
loop_
 _symmetry_equiv_pos_site_id
 _symmetry_equiv_pos_as_xyz
  1  'x, y, z'
loop_
 _atom_site_type_symbol
 _atom_site_label
 _atom_site_symmetry_multiplicity
 _atom_site_fract_x
 _atom_site_fract_y
 _atom_site_fract_z
 _atom_site_occupancy
  Zn  Zn0  1  0.61929000  0.80018000  0.14136000  1.0
  Zn  Zn1  1  0.38071000  0.19982000  0.85864000  1.0
  Zn  Zn2  1  0.76380000  0.70225000  0.67133000  1.0
  Zn  Zn3  1  0.23620000  0.29775000  0.32867000  1.0
  H  H4  1  0.33527000  0.92278000  0.00067000  1.0
  H  H5  1  0.66472000  0.07722000  0.99934000  1.0
  H  H6  1  0.60319000  0.75490000  0.78361000  1.0
  H  H7  1  0.39680000  0.24509000  0.21639000  1.0
  H  H8  1  0.86660000  0.31092000  0.96723000  1.0
  H  H9  1  0.13339000  0.68908000  0.03276000  1.0
  H  H10  1  0.14186000  0.90318000  0.87448000  1.0
  H  H11  1  0.85814000  0.09682000  0.12553000  1.0
  H  H12  1  0.09871000  0.41189000  0.05291000  1.0
  H  H13  1  0.90129000  0.58812000  0.94709000  1.0
  H  H14  1  0.19568000  0.48507000  0.01789000  1.0
  H  H15  1  0.80431000  0.51493000  0.98210000  1.0
  H  H16  1  0.67398000  0.29392000  0.85741000  1.0
  H  H17  1  0.32602000  0.70608000  0.14258000  1.0
  H  H18  1  0.49082000  0.59546000  0.92506000  1.0
  H  H19  1  0.50918000  0.40454000  0.07495000  1.0
  H  H20  1  0.29232000  0.07265000  0.95124000  1.0
  H  H21  1  0.70767000  0.92735000  0.04877000  1.0
  H  H22  1  0.10792000  0.50438000  0.89482000  1.0
  H  H23  1  0.89207000  0.49562000  0.10518000  1.0
  H  H24  1  0.51554000  0.74055000  0.88750000  1.0
  H  H25  1  0.48445000  0.25945000  0.11250000  1.0
  H  H26  1  0.52077000  0.98468000  0.13557000  1.0
  H  H27  1  0.47923000  0.01532000  0.86443000  1.0
  H  H28  1  0.39603000  0.40772000  0.90021000  1.0
  H  H29  1  0.60397000  0.59228000  0.09979000  1.0
  H  H30  1  0.33793000  0.48730000  0.95898000  1.0
  H  H31  1  0.66207000  0.51270000  0.04102000  1.0
  H  H32  1  0.23813000  0.41836000  0.86324000  1.0
  H  H33  1  0.76186000  0.58164000  0.13676000  1.0
  H  H34  1  0.55418000  0.45479000  0.85991000  1.0
  H  H35  1  0.44582000  0.54521000  0.14010000  1.0
  H  H36  1  0.03924000  0.16099000  0.39990000  1.0
  H  H37  1  0.96077000  0.83901000  0.60010000  1.0
  H  H38  1  0.10350000  0.07097000  0.36327000  1.0
  H  H39  1  0.89650000  0.92903000  0.63673000  1.0
  H  H40  1  0.03171000  0.26022000  0.06724000  1.0
  H  H41  1  0.96829000  0.73979000  0.93276000  1.0
  H  H42  1  0.34535000  0.85621000  0.58555000  1.0
  H  H43  1  0.65466000  0.14380000  0.41446000  1.0
  H  H44  1  0.40955000  0.97333000  0.65321000  1.0
  H  H45  1  0.59045000  0.02667000  0.34679000  1.0
  H  H46  1  0.92794000  0.91084000  0.80330000  1.0
  H  H47  1  0.07207000  0.08916000  0.19670000  1.0
  H  H48  1  0.91788000  0.48862000  0.78561000  1.0
  H  H49  1  0.08211000  0.51139000  0.21439000  1.0
  H  H50  1  0.51027000  0.68531000  0.54133000  1.0
  H  H51  1  0.48973000  0.31469000  0.45867000  1.0
  H  H52  1  0.37377000  0.72306000  0.55298000  1.0
  H  H53  1  0.62623000  0.27694000  0.44702000  1.0
  H  H54  1  0.44609000  0.65902000  0.61048000  1.0
  H  H55  1  0.55391000  0.34098000  0.38952000  1.0
  H  H56  1  0.91411000  0.85413000  0.32373000  1.0
  H  H57  1  0.08588000  0.14586000  0.67627000  1.0
  H  H58  1  0.02925000  0.90602000  0.28633000  1.0
  H  H59  1  0.97074000  0.09397000  0.71367000  1.0
  H  H60  1  0.88335000  0.81308000  0.22364000  1.0
  H  H61  1  0.11664000  0.18691000  0.77636000  1.0
  H  H62  1  0.20631000  0.03175000  0.47342000  1.0
  H  H63  1  0.79370000  0.96825000  0.52658000  1.0
  H  H64  1  0.74861000  0.50436000  0.59296000  1.0
  H  H65  1  0.25138000  0.49564000  0.40704000  1.0
  H  H66  1  0.64629000  0.39111000  0.58740000  1.0
  H  H67  1  0.35371000  0.60889000  0.41260000  1.0
  H  H68  1  0.81285000  0.43849000  0.64992000  1.0
  H  H69  1  0.18714000  0.56151000  0.35007000  1.0
  H  H70  1  0.04125000  0.10331000  0.08394000  1.0
  H  H71  1  0.95874000  0.89669000  0.91606000  1.0
  H  H72  1  0.66797000  0.33039000  0.69105000  1.0
  H  H73  1  0.33202000  0.66961000  0.30895000  1.0
  H  H74  1  0.57659000  0.33463000  0.75201000  1.0
  H  H75  1  0.42340000  0.66536000  0.24799000  1.0
  H  H76  1  0.60879000  0.09691000  0.73946000  1.0
  H  H77  1  0.39122000  0.90310000  0.26054000  1.0
  H  H78  1  0.51328000  0.15390000  0.18015000  1.0
  H  H79  1  0.48673000  0.84610000  0.81985000  1.0
  H  H80  1  0.16924000  0.01144000  0.02939000  1.0
  H  H81  1  0.83076000  0.98856000  0.97062000  1.0
  H  H82  1  0.88950000  0.24031000  0.35989000  1.0
  H  H83  1  0.11050000  0.75969000  0.64011000  1.0
  H  H84  1  0.73051000  0.59569000  0.25865000  1.0
  H  H85  1  0.26948000  0.40431000  0.74135000  1.0
  H  H86  1  0.43097000  0.09610000  0.59791000  1.0
  H  H87  1  0.56904000  0.90391000  0.40209000  1.0
  H  H88  1  0.69481000  0.27902000  0.28945000  1.0
  H  H89  1  0.30520000  0.72097000  0.71055000  1.0
  H  H90  1  0.80781000  0.03453000  0.42326000  1.0
  H  H91  1  0.19220000  0.96547000  0.57673000  1.0
  H  H92  1  0.98268000  0.08719000  0.87579000  1.0
  H  H93  1  0.01734000  0.91281000  0.12421000  1.0
  H  H94  1  0.51348000  0.83652000  0.49757000  1.0
  H  H95  1  0.48653000  0.16348000  0.50243000  1.0
  H  H96  1  0.82619000  0.17702000  0.84354000  1.0
  H  H97  1  0.17382000  0.82297000  0.15647000  1.0
  H  H98  1  0.80657000  0.53694000  0.37939000  1.0
  H  H99  1  0.19344000  0.46306000  0.62060000  1.0
  C  C100  1  0.22898000  0.20071000  0.96551000  1.0
  C  C101  1  0.77102000  0.79929000  0.03449000  1.0
  C  C102  1  0.26024000  0.33664000  0.94010000  1.0
  C  C103  1  0.73976000  0.66336000  0.05990000  1.0
  C  C104  1  0.00191000  0.40599000  0.93682000  1.0
  C  C105  1  0.99808000  0.59401000  0.06318000  1.0
  C  C106  1  0.73722000  0.90628000  0.73341000  1.0
  C  C107  1  0.26279000  0.09372000  0.26658000  1.0
  C  C108  1  0.68315000  0.50713000  0.68713000  1.0
  C  C109  1  0.31684000  0.49287000  0.31287000  1.0
  C  C110  1  0.62382000  0.61129000  0.76204000  1.0
  C  C111  1  0.37618000  0.38871000  0.23796000  1.0
  C  C112  1  0.15769000  0.25380000  0.99902000  1.0
  C  C113  1  0.84230000  0.74620000  0.00098000  1.0
  C  C114  1  0.29756000  0.76773000  0.95802000  1.0
  C  C115  1  0.70244000  0.23227000  0.04198000  1.0
  C  C116  1  0.11724000  0.74952000  0.84137000  1.0
  C  C117  1  0.88276000  0.25048000  0.15863000  1.0
  C  C118  1  0.56052000  0.80471000  0.64095000  1.0
  C  C119  1  0.43948000  0.19529000  0.35905000  1.0
  C  C120  1  0.27738000  0.85503000  0.95524000  1.0
  C  C121  1  0.72262000  0.14497000  0.04476000  1.0
  C  C122  1  0.70981000  0.01863000  0.22282000  1.0
  C  C123  1  0.29019000  0.98136000  0.77718000  1.0
  C  C124  1  0.63126000  0.75936000  0.27848000  1.0
  C  C125  1  0.36874000  0.24064000  0.72152000  1.0
  C  C126  1  0.61086000  0.52851000  0.78505000  1.0
  C  C127  1  0.38914000  0.47149000  0.21495000  1.0
  C  C128  1  0.64917000  0.95886000  0.71483000  1.0
  C  C129  1  0.35084000  0.04114000  0.28517000  1.0
  C  C130  1  0.39116000  0.74714000  0.01877000  1.0
  C  C131  1  0.60884000  0.25286000  0.98122000  1.0
  C  C132  1  0.59088000  0.68968000  0.79936000  1.0
  C  C133  1  0.40911000  0.31032000  0.20064000  1.0
  C  C134  1  0.46660000  0.96123000  0.55390000  1.0
  C  C135  1  0.53341000  0.03878000  0.44611000  1.0
  C  C136  1  0.87868000  0.34791000  0.92636000  1.0
  C  C137  1  0.12131000  0.65208000  0.07364000  1.0
  C  C138  1  0.78279000  0.38649000  0.81212000  1.0
  C  C139  1  0.21721000  0.61351000  0.18788000  1.0
  C  C140  1  0.67886000  0.70596000  0.33015000  1.0
  C  C141  1  0.32114000  0.29404000  0.66985000  1.0
  C  C142  1  0.17450000  0.84453000  0.88855000  1.0
  C  C143  1  0.82550000  0.15547000  0.11145000  1.0
  C  C144  1  0.12176000  0.41548000  0.00188000  1.0
  C  C145  1  0.87824000  0.58452000  0.99812000  1.0
  C  C146  1  0.76997000  0.33838000  0.86443000  1.0
  C  C147  1  0.23002000  0.66162000  0.13557000  1.0
  C  C148  1  0.00132000  0.70484000  0.76994000  1.0
  C  C149  1  0.99868000  0.29516000  0.23006000  1.0
  C  C150  1  0.81192000  0.08967000  0.28659000  1.0
  C  C151  1  0.18808000  0.91033000  0.71341000  1.0
  C  C152  1  0.52938000  0.59778000  0.87934000  1.0
  C  C153  1  0.47062000  0.40222000  0.12066000  1.0
  C  C154  1  0.85602000  0.94920000  0.26434000  1.0
  C  C155  1  0.14398000  0.05080000  0.73566000  1.0
  C  C156  1  0.00868000  0.03914000  0.44145000  1.0
  C  C157  1  0.99132000  0.96085000  0.55854000  1.0
  C  C158  1  0.23484000  0.11243000  0.97561000  1.0
  C  C159  1  0.76516000  0.88758000  0.02439000  1.0
  C  C160  1  0.01351000  0.45567000  0.88525000  1.0
  C  C161  1  0.98648000  0.54433000  0.11475000  1.0
  C  C162  1  0.54301000  0.68115000  0.85755000  1.0
  C  C163  1  0.45699000  0.31886000  0.14246000  1.0
  C  C164  1  0.59994000  0.04030000  0.18378000  1.0
  C  C165  1  0.40006000  0.95969000  0.81622000  1.0
  C  C166  1  0.31109000  0.41722000  0.91464000  1.0
  C  C167  1  0.68891000  0.58278000  0.08536000  1.0
  C  C168  1  0.56458000  0.51995000  0.84387000  1.0
  C  C169  1  0.43541000  0.48005000  0.15613000  1.0
  C  C170  1  0.02023000  0.08257000  0.37960000  1.0
  C  C171  1  0.97978000  0.91742000  0.62040000  1.0
  C  C172  1  0.08758000  0.22017000  0.04155000  1.0
  C  C173  1  0.91242000  0.77983000  0.95845000  1.0
  C  C174  1  0.43179000  0.92005000  0.61244000  1.0
  C  C175  1  0.56821000  0.07995000  0.38757000  1.0
  C  C176  1  0.74565000  0.64932000  0.44127000  1.0
  C  C177  1  0.25436000  0.35068000  0.55873000  1.0
  C  C178  1  0.85981000  0.95178000  0.79106000  1.0
  C  C179  1  0.14020000  0.04821000  0.20894000  1.0
  C  C180  1  0.90560000  0.44653000  0.82341000  1.0
  C  C181  1  0.09439000  0.55347000  0.17659000  1.0
  C  C182  1  0.46642000  0.71361000  0.58295000  1.0
  C  C183  1  0.53358000  0.28639000  0.41705000  1.0
  C  C184  1  0.92471000  0.87670000  0.27507000  1.0
  C  C185  1  0.07529000  0.12329000  0.72493000  1.0
  C  C186  1  0.11534000  0.01799000  0.48482000  1.0
  C  C187  1  0.88466000  0.98200000  0.51518000  1.0
  C  C188  1  0.72444000  0.45756000  0.62584000  1.0
  C  C189  1  0.27555000  0.54244000  0.37416000  1.0
  C  C190  1  0.09388000  0.13207000  0.05089000  1.0
  C  C191  1  0.90611000  0.86793000  0.94911000  1.0
  C  C192  1  0.66401000  0.37353000  0.74485000  1.0
  C  C193  1  0.33598000  0.62647000  0.25515000  1.0
  C  C194  1  0.67780000  0.05689000  0.75325000  1.0
  C  C195  1  0.32220000  0.94311000  0.24675000  1.0
  C  C196  1  0.59707000  0.13458000  0.20966000  1.0
  C  C197  1  0.40294000  0.86542000  0.79034000  1.0
  C  C198  1  0.16679000  0.07939000  0.01923000  1.0
  C  C199  1  0.83320000  0.92061000  0.98077000  1.0
  C  C200  1  0.80930000  0.18443000  0.31239000  1.0
  C  C201  1  0.19071000  0.81557000  0.68761000  1.0
  C  C202  1  0.72595000  0.62778000  0.31453000  1.0
  C  C203  1  0.27404000  0.37222000  0.68547000  1.0
  C  C204  1  0.46057000  0.05362000  0.55472000  1.0
  C  C205  1  0.53943000  0.94639000  0.44529000  1.0
  C  C206  1  0.69991000  0.20551000  0.27240000  1.0
  C  C207  1  0.30010000  0.79449000  0.72761000  1.0
  C  C208  1  0.89304000  0.02031000  0.45714000  1.0
  C  C209  1  0.10697000  0.97969000  0.54286000  1.0
  C  C210  1  0.88866000  0.04941000  0.82998000  1.0
  C  C211  1  0.11135000  0.95059000  0.17002000  1.0
  C  C212  1  0.50662000  0.90835000  0.49894000  1.0
  C  C213  1  0.49339000  0.09166000  0.50106000  1.0
  C  C214  1  0.77608000  0.63713000  0.51791000  1.0
  C  C215  1  0.22393000  0.36287000  0.48209000  1.0
  C  C216  1  0.79936000  0.10079000  0.81159000  1.0
  C  C217  1  0.20065000  0.89921000  0.18841000  1.0
  C  C218  1  0.76496000  0.59596000  0.37798000  1.0
  C  C219  1  0.23504000  0.40404000  0.62202000  1.0
  S  S220  1  0.19193000  0.67400000  0.87809000  1.0
  S  S221  1  0.80807000  0.32600000  0.12190000  1.0
  S  S222  1  0.68086000  0.73873000  0.42270000  1.0
  S  S223  1  0.31913000  0.26126000  0.57730000  1.0
  N  N224  1  0.28945000  0.25362000  0.92832000  1.0
  N  N225  1  0.71054000  0.74638000  0.07168000  1.0
  N  N226  1  0.67868000  0.81068000  0.68658000  1.0
  N  N227  1  0.32133000  0.18932000  0.31342000  1.0
  N  N228  1  0.74122000  0.93268000  0.21033000  1.0
  N  N229  1  0.25878000  0.06732000  0.78967000  1.0
  N  N230  1  0.17972000  0.33886000  0.98178000  1.0
  N  N231  1  0.82027000  0.66115000  0.01823000  1.0
  N  N232  1  0.53899000  0.89265000  0.65604000  1.0
  N  N233  1  0.46102000  0.10735000  0.34396000  1.0
  N  N234  1  0.66938000  0.59565000  0.70091000  1.0
  N  N235  1  0.33061000  0.40435000  0.29909000  1.0
  N  N236  1  0.64919000  0.46480000  0.73676000  1.0
  N  N237  1  0.35081000  0.53520000  0.26325000  1.0
  N  N238  1  0.90248000  0.04307000  0.31136000  1.0
  N  N239  1  0.09752000  0.95692000  0.68863000  1.0
  O  O240  1  0.62254000  0.72058000  0.20815000  1.0
  O  O241  1  0.37746000  0.27942000  0.79185000  1.0
  O  O242  1  0.39278000  0.66231000  0.01220000  1.0
  O  O243  1  0.60722000  0.33769000  0.98780000  1.0
  O  O244  1  0.46688000  0.82277000  0.07705000  1.0
  O  O245  1  0.53312000  0.17723000  0.92295000  1.0
  O  O246  1  0.94173000  0.76405000  0.74762000  1.0
  O  O247  1  0.05827000  0.23595000  0.25238000  1.0
  O  O248  1  0.73809000  0.69398000  0.56468000  1.0
  O  O249  1  0.26192000  0.30602000  0.43532000  1.0
  O  O250  1  0.96645000  0.61583000  0.73796000  1.0
  O  O251  1  0.03355000  0.38417000  0.26203000  1.0
  O  O252  1  0.60159000  0.83384000  0.30261000  1.0
  O  O253  1  0.39841000  0.16616000  0.69739000  1.0
  O  O254  1  0.83281000  0.57772000  0.53228000  1.0
  O  O255  1  0.16720000  0.42228000  0.46772000  1.0
