# generated using pymatgen
data_Al3H24C42(Cl5O7)2
_symmetry_space_group_name_H-M   'P 1'
_cell_length_a   13.50520000
_cell_length_b   13.91420000
_cell_length_c   27.99800000
_cell_angle_alpha   88.99020000
_cell_angle_beta   88.89680000
_cell_angle_gamma   61.13920000
_symmetry_Int_Tables_number   1
_chemical_formula_structural   Al3H24C42(Cl5O7)2
_chemical_formula_sum   'Al6 H48 C84 Cl20 O28'
_cell_volume   4606.68539973
_cell_formula_units_Z   2
loop_
 _symmetry_equiv_pos_site_id
 _symmetry_equiv_pos_as_xyz
  1  'x, y, z'
loop_
 _atom_site_type_symbol
 _atom_site_label
 _atom_site_symmetry_multiplicity
 _atom_site_fract_x
 _atom_site_fract_y
 _atom_site_fract_z
 _atom_site_occupancy
  Al  Al0  1  0.17499000  0.41414000  0.49800000  1.0
  Al  Al1  1  0.94150000  0.64108000  0.50157000  1.0
  Al  Al2  1  0.92890000  0.43156000  0.49942000  1.0
  Al  Al3  1  0.15570000  0.90954000  0.99851000  1.0
  Al  Al4  1  0.38287000  0.92937000  0.99868000  1.0
  Al  Al5  1  0.40537000  0.70366000  0.99974000  1.0
  H  H6  1  0.72528000  0.80998000  0.21663000  1.0
  H  H7  1  0.34191000  0.07146000  0.30978000  1.0
  H  H8  1  0.08380000  0.34080000  0.28348000  1.0
  H  H9  1  0.04292000  0.10320000  0.22098000  1.0
  H  H10  1  0.25880000  0.47599000  0.28091000  1.0
  H  H11  1  0.21455000  0.76174000  0.28356000  1.0
  H  H12  1  0.31567000  0.62596000  0.30034000  1.0
  H  H13  1  0.34772000  0.56317000  0.22106000  1.0
  H  H14  1  0.11467000  0.51029000  0.28298000  1.0
  H  H15  1  0.09163000  0.55015000  0.20065000  1.0
  H  H16  1  0.82999000  0.51149000  0.73925000  1.0
  H  H17  1  0.67980000  0.53622000  0.79412000  1.0
  H  H18  1  0.61739000  0.87063000  0.78897000  1.0
  H  H19  1  0.81767000  0.70223000  0.79493000  1.0
  H  H20  1  0.51213000  0.83772000  0.77092000  1.0
  H  H21  1  0.25820000  0.00757000  0.69459000  1.0
  H  H22  1  0.32272000  0.09153000  0.69861000  1.0
  H  H23  1  0.54234000  0.61972000  0.29673000  1.0
  H  H24  1  0.06816000  0.07311000  0.70949000  1.0
  H  H25  1  0.04502000  0.35170000  0.72073000  1.0
  H  H26  1  0.08261000  0.32720000  0.79947000  1.0
  H  H27  1  0.99250000  0.66905000  0.72308000  1.0
  H  H28  1  0.05167000  0.81373000  0.71709000  1.0
  H  H29  1  0.12160000  0.82118000  0.79280000  1.0
  H  H30  1  0.30770000  0.47498000  0.70368000  1.0
  H  H31  1  0.34287000  0.58166000  0.70562000  1.0
  H  H32  1  0.29020000  0.46812000  0.78740000  1.0
  H  H33  1  0.09853000  0.53035000  0.73039000  1.0
  H  H34  1  0.08625000  0.56986000  0.81220000  1.0
  H  H35  1  0.37466000  0.53337000  0.78698000  1.0
  H  H36  1  0.17183000  0.97880000  0.22107000  1.0
  H  H37  1  0.20408000  0.99424000  0.30300000  1.0
  H  H38  1  0.29664000  0.20290000  0.28436000  1.0
  H  H39  1  0.34435000  0.99226000  0.23531000  1.0
  H  H40  1  0.05648000  0.08382000  0.30475000  1.0
  H  H41  1  0.18113000  0.28252000  0.21240000  1.0
  H  H42  1  0.57719000  0.89055000  0.29640000  1.0
  H  H43  1  0.96682000  0.72262000  0.27189000  1.0
  H  H44  1  0.01332000  0.81978000  0.28158000  1.0
  H  H45  1  0.99575000  0.73424000  0.19077000  1.0
  H  H46  1  0.87974000  0.60405000  0.72241000  1.0
  H  H47  1  0.33364000  0.06986000  0.78021000  1.0
  H  H48  1  0.01177000  0.71333000  0.80188000  1.0
  H  H49  1  0.18864000  0.78129000  0.69617000  1.0
  H  H50  1  0.42805000  0.82781000  0.25257000  1.0
  H  H51  1  0.26345000  0.74728000  0.77317000  1.0
  H  H52  1  0.36174000  0.32904000  0.52504000  1.0
  H  H53  1  0.97105000  0.97302000  0.02763000  1.0
  C  C54  1  0.10083000  0.60759000  0.43112000  1.0
  C  C55  1  0.73748000  0.64717000  0.39279000  1.0
  C  C56  1  0.51974000  0.77878000  0.25474000  1.0
  C  C57  1  0.60159000  0.73498000  0.20929000  1.0
  C  C58  1  0.58198000  0.66316000  0.27892000  1.0
  C  C59  1  0.66435000  0.69651000  0.30448000  1.0
  C  C60  1  0.66412000  0.61819000  0.23519000  1.0
  C  C61  1  0.74667000  0.65300000  0.25882000  1.0
  C  C62  1  0.57278000  0.74970000  0.16039000  1.0
  C  C63  1  0.70164000  0.67189000  0.35224000  1.0
  C  C64  1  0.13586000  0.07047000  0.28784000  1.0
  C  C65  1  0.79491000  0.61385000  0.43771000  1.0
  C  C66  1  0.28290000  0.13126000  0.28411000  1.0
  C  C67  1  0.30456000  0.08195000  0.23376000  1.0
  C  C68  1  0.20726000  0.07527000  0.11583000  1.0
  C  C69  1  0.15952000  0.16553000  0.29998000  1.0
  C  C70  1  0.13073000  0.06417000  0.23311000  1.0
  C  C71  1  0.18960000  0.12405000  0.20795000  1.0
  C  C72  1  0.12209000  0.24967000  0.21726000  1.0
  C  C73  1  0.07987000  0.26926000  0.26990000  1.0
  C  C74  1  0.20271000  0.09929000  0.15754000  1.0
  C  C75  1  0.14016000  0.19728000  0.34977000  1.0
  C  C76  1  0.08942000  0.29921000  0.43277000  1.0
  C  C77  1  0.11820000  0.23638000  0.38950000  1.0
  C  C78  1  0.17416000  0.53676000  0.26897000  1.0
  C  C79  1  0.24302000  0.67452000  0.27729000  1.0
  C  C80  1  0.27657000  0.64653000  0.22472000  1.0
  C  C81  1  0.21512000  0.66519000  0.10467000  1.0
  C  C82  1  0.14462000  0.65053000  0.28964000  1.0
  C  C83  1  0.17044000  0.54374000  0.21409000  1.0
  C  C84  1  0.17682000  0.64819000  0.19671000  1.0
  C  C85  1  0.05843000  0.74416000  0.21138000  1.0
  C  C86  1  0.03694000  0.74020000  0.26550000  1.0
  C  C87  1  0.10537000  0.60213000  0.56758000  1.0
  C  C88  1  0.19619000  0.65043000  0.14587000  1.0
  C  C89  1  0.12928000  0.64748000  0.34082000  1.0
  C  C90  1  0.11903000  0.63647000  0.38343000  1.0
  C  C91  1  0.80913000  0.59811000  0.73918000  1.0
  C  C92  1  0.61613000  0.62063000  0.72693000  1.0
  C  C93  1  0.61730000  0.61930000  0.78296000  1.0
  C  C94  1  0.60134000  0.73717000  0.89322000  1.0
  C  C95  1  0.70035000  0.66320000  0.70842000  1.0
  C  C96  1  0.78815000  0.64223000  0.79048000  1.0
  C  C97  1  0.65892000  0.69923000  0.80127000  1.0
  C  C98  1  0.80555000  0.59690000  0.56899000  1.0
  C  C99  1  0.60366000  0.80795000  0.77179000  1.0
  C  C100  1  0.65126000  0.78887000  0.72049000  1.0
  C  C101  1  0.63177000  0.72095000  0.85167000  1.0
  C  C102  1  0.72836000  0.64125000  0.65814000  1.0
  C  C103  1  0.75706000  0.62178000  0.61650000  1.0
  C  C104  1  0.13131000  0.28389000  0.72525000  1.0
  C  C105  1  0.25308000  0.07931000  0.71249000  1.0
  C  C106  1  0.26310000  0.06056000  0.76688000  1.0
  C  C107  1  0.18790000  0.10048000  0.88605000  1.0
  C  C108  1  0.13950000  0.18102000  0.70020000  1.0
  C  C109  1  0.09189000  0.29163000  0.56336000  1.0
  C  C110  1  0.15298000  0.26169000  0.77997000  1.0
  C  C111  1  0.15653000  0.14997000  0.79367000  1.0
  C  C112  1  0.04229000  0.15832000  0.77576000  1.0
  C  C113  1  0.04481000  0.15692000  0.72007000  1.0
  C  C114  1  0.16936000  0.12896000  0.84456000  1.0
  C  C115  1  0.12780000  0.20168000  0.64919000  1.0
  C  C116  1  0.11462000  0.23060000  0.60762000  1.0
  C  C117  1  0.07799000  0.61571000  0.73654000  1.0
  C  C118  1  0.14208000  0.75462000  0.72081000  1.0
  C  C119  1  0.18142000  0.74905000  0.77252000  1.0
  C  C120  1  0.60164000  0.81282000  0.27867000  1.0
  C  C121  1  0.23132000  0.67611000  0.88794000  1.0
  C  C122  1  0.16240000  0.63941000  0.70677000  1.0
  C  C123  1  0.08511000  0.63647000  0.79015000  1.0
  C  C124  1  0.19425000  0.64374000  0.79828000  1.0
  C  C125  1  0.29394000  0.54180000  0.77513000  1.0
  C  C126  1  0.28487000  0.55382000  0.72037000  1.0
  C  C127  1  0.21360000  0.65490000  0.84810000  1.0
  C  C128  1  0.14381000  0.63388000  0.65643000  1.0
  C  C129  1  0.12901000  0.62520000  0.61439000  1.0
  C  C130  1  0.22109000  0.03501000  0.06790000  1.0
  C  C131  1  0.68392000  0.76855000  0.23481000  1.0
  C  C132  1  0.51285000  0.76821000  0.06959000  1.0
  C  C133  1  0.24161000  0.70612000  0.06145000  1.0
  C  C134  1  0.21817000  0.04506000  0.93176000  1.0
  C  C135  1  0.54118000  0.76151000  0.93828000  1.0
  C  C136  1  0.25300000  0.71591000  0.93135000  1.0
  C  C137  1  0.55212000  0.75454000  0.11792000  1.0
  Cl  Cl138  1  0.40412000  0.10951000  0.20146000  1.0
  Cl  Cl139  1  0.93628000  0.30011000  0.27884000  1.0
  Cl  Cl140  1  0.01369000  0.32402000  0.17541000  1.0
  Cl  Cl141  1  0.28016000  0.41999000  0.18865000  1.0
  Cl  Cl142  1  0.32995000  0.73182000  0.19928000  1.0
  Cl  Cl143  1  0.89227000  0.57335000  0.26109000  1.0
  Cl  Cl144  1  0.04002000  0.87584000  0.19305000  1.0
  Cl  Cl145  1  0.86779000  0.53448000  0.83223000  1.0
  Cl  Cl146  1  0.47933000  0.69815000  0.70257000  1.0
  Cl  Cl147  1  0.66783000  0.48188000  0.70782000  1.0
  Cl  Cl148  1  0.48880000  0.64060000  0.80967000  1.0
  Cl  Cl149  1  0.76506000  0.82280000  0.71496000  1.0
  Cl  Cl150  1  0.54780000  0.88011000  0.67949000  1.0
  Cl  Cl151  1  0.70272000  0.49568000  0.20731000  1.0
  Cl  Cl152  1  0.27534000  0.26351000  0.80152000  1.0
  Cl  Cl153  1  0.22079000  0.32738000  0.69572000  1.0
  Cl  Cl154  1  0.29801000  0.92314000  0.78303000  1.0
  Cl  Cl155  1  0.91167000  0.24115000  0.69379000  1.0
  Cl  Cl156  1  0.92779000  0.28098000  0.79978000  1.0
  Cl  Cl157  1  0.02237000  0.04773000  0.79749000  1.0
  O  O158  1  0.16273000  0.32081000  0.44911000  1.0
  O  O159  1  0.83005000  0.66688000  0.54992000  1.0
  O  O160  1  0.82471000  0.50591000  0.55067000  1.0
  O  O161  1  0.99721000  0.31668000  0.54324000  1.0
  O  O162  1  0.01285000  0.49652000  0.49984000  1.0
  O  O163  1  0.16801000  0.79978000  0.04728000  1.0
  O  O164  1  0.15719000  0.99868000  0.05425000  1.0
  O  O165  1  0.30252000  0.03614000  0.04312000  1.0
  O  O166  1  0.48890000  0.85920000  0.04870000  1.0
  O  O167  1  0.50074000  0.69048000  0.05182000  1.0
  O  O168  1  0.34032000  0.64655000  0.04275000  1.0
  O  O169  1  0.16940000  0.51246000  0.44575000  1.0
  O  O170  1  0.17578000  0.80604000  0.94723000  1.0
  O  O171  1  0.15257000  0.01303000  0.94942000  1.0
  O  O172  1  0.31289000  0.02897000  0.94891000  1.0
  O  O173  1  0.50395000  0.85844000  0.95436000  1.0
  O  O174  1  0.52427000  0.68624000  0.95702000  1.0
  O  O175  1  0.35218000  0.65720000  0.94951000  1.0
  O  O176  1  0.31679000  0.84685000  0.99873000  1.0
  O  O177  1  0.01287000  0.67996000  0.45370000  1.0
  O  O178  1  0.82615000  0.67854000  0.45585000  1.0
  O  O179  1  0.81463000  0.52077000  0.45525000  1.0
  O  O180  1  0.98886000  0.33153000  0.44988000  1.0
  O  O181  1  0.16358000  0.31997000  0.54976000  1.0
  O  O182  1  0.17353000  0.51074000  0.54936000  1.0
  O  O183  1  0.01271000  0.67594000  0.54837000  1.0
  O  O184  1  0.32272000  0.33944000  0.49523000  1.0
  O  O185  1  0.00809000  0.97343000  0.99780000  1.0
