# generated using pymatgen
data_KH4C3N9O2
_symmetry_space_group_name_H-M   'P 1'
_cell_length_a   6.85701000
_cell_length_b   11.04700000
_cell_length_c   18.17760000
_cell_angle_alpha   96.40020000
_cell_angle_beta   97.06570000
_cell_angle_gamma   95.94080000
_symmetry_Int_Tables_number   1
_chemical_formula_structural   KH4C3N9O2
_chemical_formula_sum   'K6 H24 C18 N54 O12'
_cell_volume   1348.34363074
_cell_formula_units_Z   6
loop_
 _symmetry_equiv_pos_site_id
 _symmetry_equiv_pos_as_xyz
  1  'x, y, z'
loop_
 _atom_site_type_symbol
 _atom_site_label
 _atom_site_symmetry_multiplicity
 _atom_site_fract_x
 _atom_site_fract_y
 _atom_site_fract_z
 _atom_site_occupancy
  K  K0  1  0.56057000  0.81589000  0.43104000  1.0
  K  K1  1  0.43943000  0.18410000  0.56896000  1.0
  K  K2  1  0.95242000  0.09822000  0.38124000  1.0
  K  K3  1  0.04758000  0.90176000  0.61876000  1.0
  K  K4  1  0.09131000  0.79921000  0.23906000  1.0
  K  K5  1  0.90868000  0.20080000  0.76094000  1.0
  H  H6  1  0.70103000  0.70048000  0.96145000  1.0
  H  H7  1  0.29897000  0.29952000  0.03855000  1.0
  H  H8  1  0.96010000  0.75082000  0.98176000  1.0
  H  H9  1  0.03989000  0.24918000  0.01824000  1.0
  H  H10  1  0.16469000  0.71415000  0.86355000  1.0
  H  H11  1  0.83530000  0.28585000  0.13644000  1.0
  H  H12  1  0.41279000  0.68131000  0.88361000  1.0
  H  H13  1  0.58720000  0.31869000  0.11639000  1.0
  H  H14  1  0.89263000  0.90381000  0.08672000  1.0
  H  H15  1  0.10737000  0.09619000  0.91328000  1.0
  H  H16  1  0.78279000  0.92787000  0.99621000  1.0
  H  H17  1  0.21721000  0.07213000  0.00379000  1.0
  H  H18  1  0.27306000  0.87514000  0.78632000  1.0
  H  H19  1  0.72693000  0.12487000  0.21368000  1.0
  H  H20  1  0.38328000  0.90101000  0.88175000  1.0
  H  H21  1  0.61671000  0.09899000  0.11825000  1.0
  H  H22  1  0.27497000  0.39382000  0.43321000  1.0
  H  H23  1  0.72504000  0.60618000  0.56680000  1.0
  H  H24  1  0.35397000  0.54573000  0.41761000  1.0
  H  H25  1  0.64604000  0.45428000  0.58240000  1.0
  H  H26  1  0.41427000  0.38485000  0.31778000  1.0
  H  H27  1  0.58575000  0.61516000  0.68222000  1.0
  H  H28  1  0.15356000  0.33797000  0.29709000  1.0
  H  H29  1  0.84646000  0.66204000  0.70291000  1.0
  C  C30  1  0.62287000  0.87828000  0.73677000  1.0
  C  C31  1  0.37712000  0.12172000  0.26323000  1.0
  C  C32  1  0.99045000  0.61422000  0.41144000  1.0
  C  C33  1  0.00956000  0.38577000  0.58856000  1.0
  C  C34  1  0.53894000  0.85411000  0.13512000  1.0
  C  C35  1  0.46106000  0.14589000  0.86488000  1.0
  C  C36  1  0.82095000  0.74033000  0.00578000  1.0
  C  C37  1  0.17905000  0.25968000  0.99422000  1.0
  C  C38  1  0.30714000  0.71306000  0.84164000  1.0
  C  C39  1  0.69285000  0.28694000  0.15836000  1.0
  C  C40  1  0.78082000  0.86581000  0.03919000  1.0
  C  C41  1  0.21918000  0.13419000  0.96081000  1.0
  C  C42  1  0.37588000  0.84246000  0.82848000  1.0
  C  C43  1  0.62412000  0.15754000  0.17152000  1.0
  C  C44  1  0.24654000  0.46512000  0.39733000  1.0
  C  C45  1  0.75347000  0.53488000  0.60267000  1.0
  C  C46  1  0.26707000  0.41613000  0.31768000  1.0
  C  C47  1  0.73294000  0.58387000  0.68232000  1.0
  N  N48  1  0.58800000  0.86223000  0.06512000  1.0
  N  N49  1  0.41200000  0.13777000  0.93488000  1.0
  N  N50  1  0.12026000  0.71056000  0.40003000  1.0
  N  N51  1  0.87974000  0.28944000  0.59997000  1.0
  N  N52  1  0.05091000  0.50009000  0.40568000  1.0
  N  N53  1  0.94910000  0.49990000  0.59432000  1.0
  N  N54  1  0.82214000  0.88851000  0.74329000  1.0
  N  N55  1  0.17786000  0.11148000  0.25671000  1.0
  N  N56  1  0.48123000  0.89729000  0.68111000  1.0
  N  N57  1  0.51877000  0.10271000  0.31889000  1.0
  N  N58  1  0.34072000  0.85182000  0.13035000  1.0
  N  N59  1  0.65928000  0.14818000  0.86965000  1.0
  N  N60  1  0.68851000  0.86253000  0.19290000  1.0
  N  N61  1  0.31149000  0.13747000  0.80710000  1.0
  N  N62  1  0.79720000  0.60078000  0.41987000  1.0
  N  N63  1  0.20281000  0.39922000  0.58013000  1.0
  N  N64  1  0.51728000  0.87161000  0.61145000  1.0
  N  N65  1  0.48272000  0.12839000  0.38855000  1.0
  N  N66  1  0.08474000  0.82283000  0.42403000  1.0
  N  N67  1  0.91526000  0.17716000  0.57597000  1.0
  N  N68  1  0.73702000  0.84996000  0.85180000  1.0
  N  N69  1  0.26297000  0.15004000  0.14820000  1.0
  N  N70  1  0.42047000  0.86430000  0.01771000  1.0
  N  N71  1  0.57953000  0.13570000  0.98229000  1.0
  N  N72  1  0.88509000  0.86997000  0.81466000  1.0
  N  N73  1  0.11490000  0.13003000  0.18534000  1.0
  N  N74  1  0.74543000  0.47802000  0.41834000  1.0
  N  N75  1  0.25458000  0.52197000  0.58166000  1.0
  N  N76  1  0.89516000  0.41646000  0.41013000  1.0
  N  N77  1  0.10485000  0.58353000  0.58987000  1.0
  N  N78  1  0.57070000  0.85505000  0.80427000  1.0
  N  N79  1  0.42929000  0.14495000  0.19573000  1.0
  N  N80  1  0.64242000  0.83959000  0.25875000  1.0
  N  N81  1  0.35758000  0.16041000  0.74125000  1.0
  N  N82  1  0.27536000  0.85875000  0.05746000  1.0
  N  N83  1  0.72463000  0.14125000  0.94254000  1.0
  N  N84  1  0.24444000  0.52042000  0.77395000  1.0
  N  N85  1  0.75556000  0.47958000  0.22605000  1.0
  N  N86  1  0.84113000  0.65916000  0.06512000  1.0
  N  N87  1  0.15887000  0.34084000  0.93488000  1.0
  N  N88  1  0.27846000  0.49224000  0.20431000  1.0
  N  N89  1  0.72154000  0.50776000  0.79569000  1.0
  N  N90  1  0.28390000  0.63032000  0.77063000  1.0
  N  N91  1  0.71609000  0.36969000  0.22937000  1.0
  N  N92  1  0.24564000  0.51395000  0.26891000  1.0
  N  N93  1  0.75437000  0.48606000  0.73110000  1.0
  N  N94  1  0.81239000  0.54854000  0.04459000  1.0
  N  N95  1  0.18761000  0.45146000  0.95541000  1.0
  N  N96  1  0.20795000  0.41555000  0.76930000  1.0
  N  N97  1  0.79206000  0.58445000  0.23069000  1.0
  N  N98  1  0.30501000  0.48474000  0.14260000  1.0
  N  N99  1  0.69498000  0.51526000  0.85740000  1.0
  N  N100  1  0.78828000  0.44311000  0.03223000  1.0
  N  N101  1  0.21172000  0.55689000  0.96778000  1.0
  O  O102  1  0.78397000  0.86233000  0.31257000  1.0
  O  O103  1  0.21603000  0.13767000  0.68743000  1.0
  O  O104  1  0.95940000  0.84576000  0.46738000  1.0
  O  O105  1  0.04060000  0.15423000  0.53262000  1.0
  O  O106  1  0.65680000  0.81296000  0.59354000  1.0
  O  O107  1  0.34319000  0.18704000  0.40646000  1.0
  O  O108  1  0.47361000  0.79554000  0.27036000  1.0
  O  O109  1  0.52639000  0.20446000  0.72963000  1.0
  O  O110  1  0.18899000  0.90921000  0.40105000  1.0
  O  O111  1  0.81101000  0.09079000  0.59895000  1.0
  O  O112  1  0.39738000  0.90596000  0.56108000  1.0
  O  O113  1  0.60262000  0.09404000  0.43892000  1.0
