# generated using pymatgen
data_BaHgH9C9S2N3O7
_symmetry_space_group_name_H-M   'P 1'
_cell_length_a   6.90783000
_cell_length_b   15.69830000
_cell_length_c   15.97470000
_cell_angle_alpha   100.05900000
_cell_angle_beta   90.00000000
_cell_angle_gamma   102.71000000
_symmetry_Int_Tables_number   1
_chemical_formula_structural   BaHgH9C9S2N3O7
_chemical_formula_sum   'Ba4 Hg4 H36 C36 S8 N12 O28'
_cell_volume   1662.55889196
_cell_formula_units_Z   4
loop_
 _symmetry_equiv_pos_site_id
 _symmetry_equiv_pos_as_xyz
  1  'x, y, z'
loop_
 _atom_site_type_symbol
 _atom_site_label
 _atom_site_symmetry_multiplicity
 _atom_site_fract_x
 _atom_site_fract_y
 _atom_site_fract_z
 _atom_site_occupancy
  Ba  Ba0  1  0.48220000  0.44188000  0.66961000  1.0
  Ba  Ba1  1  0.04004000  0.55796000  0.83029000  1.0
  Ba  Ba2  1  0.51780000  0.55812000  0.33040000  1.0
  Ba  Ba3  1  0.95996000  0.44204000  0.16971000  1.0
  Hg  Hg4  1  0.03325000  0.14500000  0.37048000  1.0
  Hg  Hg5  1  0.88830000  0.85487000  0.12963000  1.0
  Hg  Hg6  1  0.96675000  0.85500000  0.62952000  1.0
  Hg  Hg7  1  0.11169000  0.14513000  0.87037000  1.0
  H  H8  1  0.86482000  0.44847000  0.55875000  1.0
  H  H9  1  0.41626000  0.55167000  0.94118000  1.0
  H  H10  1  0.13518000  0.55153000  0.44125000  1.0
  H  H11  1  0.58374000  0.44833000  0.05882000  1.0
  H  H12  1  0.79794000  0.51653000  0.50804000  1.0
  H  H13  1  0.28136000  0.48377000  0.99202000  1.0
  H  H14  1  0.20206000  0.48347000  0.49196000  1.0
  H  H15  1  0.71864000  0.51623000  0.00798000  1.0
  H  H16  1  0.40996000  0.35740000  0.85419000  1.0
  H  H17  1  0.05231000  0.64257000  0.64567000  1.0
  H  H18  1  0.59005000  0.64260000  0.14581000  1.0
  H  H19  1  0.94769000  0.35743000  0.35433000  1.0
  H  H20  1  0.64158000  0.36861000  0.84075000  1.0
  H  H21  1  0.27267000  0.63130000  0.65913000  1.0
  H  H22  1  0.35842000  0.63139000  0.15925000  1.0
  H  H23  1  0.72733000  0.36870000  0.34088000  1.0
  H  H24  1  0.62389000  0.63714000  0.60008000  1.0
  H  H25  1  0.98709000  0.36295000  0.89989000  1.0
  H  H26  1  0.37611000  0.36286000  0.39992000  1.0
  H  H27  1  0.01291000  0.63705000  0.10011000  1.0
  H  H28  1  0.41858000  0.59454000  0.54784000  1.0
  H  H29  1  0.82407000  0.40534000  0.95210000  1.0
  H  H30  1  0.58142000  0.40546000  0.45216000  1.0
  H  H31  1  0.17594000  0.59466000  0.04790000  1.0
  H  H32  1  0.75851000  0.22170000  0.74246000  1.0
  H  H33  1  0.53702000  0.77813000  0.75771000  1.0
  H  H34  1  0.24150000  0.77829000  0.25754000  1.0
  H  H35  1  0.46298000  0.22187000  0.24229000  1.0
  H  H36  1  0.66055000  0.06849000  0.65505000  1.0
  H  H37  1  0.59286000  0.93132000  0.84510000  1.0
  H  H38  1  0.33945000  0.93151000  0.34495000  1.0
  H  H39  1  0.40713000  0.06868000  0.15490000  1.0
  H  H40  1  0.77339000  0.04341000  0.50489000  1.0
  H  H41  1  0.73046000  0.95630000  0.99530000  1.0
  H  H42  1  0.22661000  0.95659000  0.49511000  1.0
  H  H43  1  0.26953000  0.04370000  0.00470000  1.0
  C  C44  1  0.07280000  0.33032000  0.50886000  1.0
  C  C45  1  0.74226000  0.66929000  0.99123000  1.0
  C  C46  1  0.92720000  0.66968000  0.49114000  1.0
  C  C47  1  0.25774000  0.33071000  0.00877000  1.0
  C  C48  1  0.96741000  0.36860000  0.69475000  1.0
  C  C49  1  0.59840000  0.63109000  0.80531000  1.0
  C  C50  1  0.03260000  0.63139000  0.30525000  1.0
  C  C51  1  0.40160000  0.36891000  0.19468000  1.0
  C  C52  1  0.96217000  0.25860000  0.55440000  1.0
  C  C53  1  0.70322000  0.74102000  0.94577000  1.0
  C  C54  1  0.03784000  0.74140000  0.44560000  1.0
  C  C55  1  0.29679000  0.25898000  0.05423000  1.0
  C  C56  1  0.91193000  0.27765000  0.63975000  1.0
  C  C57  1  0.63387000  0.72201000  0.86044000  1.0
  C  C58  1  0.08808000  0.72235000  0.36026000  1.0
  C  C59  1  0.36612000  0.27799000  0.13956000  1.0
  C  C60  1  0.80192000  0.20843000  0.67663000  1.0
  C  C61  1  0.59362000  0.79134000  0.82355000  1.0
  C  C62  1  0.19809000  0.79157000  0.32338000  1.0
  C  C63  1  0.40639000  0.20867000  0.17645000  1.0
  C  C64  1  0.74781000  0.12356000  0.62868000  1.0
  C  C65  1  0.62470000  0.87621000  0.87152000  1.0
  C  C66  1  0.25220000  0.87644000  0.37132000  1.0
  C  C67  1  0.37530000  0.12379000  0.12848000  1.0
  C  C68  1  0.80726000  0.10907000  0.54490000  1.0
  C  C69  1  0.69845000  0.89064000  0.95530000  1.0
  C  C70  1  0.19274000  0.89093000  0.45511000  1.0
  C  C71  1  0.30154000  0.10936000  0.04470000  1.0
  C  C72  1  0.42502000  0.21546000  0.48990000  1.0
  C  C73  1  0.20905000  0.78466000  0.00999000  1.0
  C  C74  1  0.57498000  0.78454000  0.51010000  1.0
  C  C75  1  0.79095000  0.21534000  0.99001000  1.0
  C  C76  1  0.79713000  0.92317000  0.32063000  1.0
  C  C77  1  0.87464000  0.07692000  0.17930000  1.0
  C  C78  1  0.20288000  0.07683000  0.67937000  1.0
  C  C79  1  0.12535000  0.92308000  0.82070000  1.0
  S  S80  1  0.39109000  0.13671000  0.40433000  1.0
  S  S81  1  0.25418000  0.86340000  0.09557000  1.0
  S  S82  1  0.60890000  0.86328000  0.59567000  1.0
  S  S83  1  0.74582000  0.13660000  0.90443000  1.0
  S  S84  1  0.70695000  0.82566000  0.26090000  1.0
  S  S85  1  0.88191000  0.17441000  0.23906000  1.0
  S  S86  1  0.29306000  0.17434000  0.73910000  1.0
  S  S87  1  0.11808000  0.82560000  0.76094000  1.0
  N  N88  1  0.91031000  0.17526000  0.50940000  1.0
  N  N89  1  0.73496000  0.82438000  0.99079000  1.0
  N  N90  1  0.08969000  0.82474000  0.49060000  1.0
  N  N91  1  0.26504000  0.17563000  0.00921000  1.0
  N  N92  1  0.45115000  0.27214000  0.55062000  1.0
  N  N93  1  0.17828000  0.72792000  0.94932000  1.0
  N  N94  1  0.54885000  0.72786000  0.44938000  1.0
  N  N95  1  0.82172000  0.27208000  0.05068000  1.0
  N  N96  1  0.85724000  0.99107000  0.36740000  1.0
  N  N97  1  0.86672000  0.00899000  0.13258000  1.0
  N  N98  1  0.14275000  0.00892000  0.63260000  1.0
  N  N99  1  0.13326000  0.99102000  0.86742000  1.0
  O  O100  1  0.09860000  0.31255000  0.42964000  1.0
  O  O101  1  0.78592000  0.68705000  0.07044000  1.0
  O  O102  1  0.90140000  0.68745000  0.57036000  1.0
  O  O103  1  0.21408000  0.31295000  0.92956000  1.0
  O  O104  1  0.13259000  0.40765000  0.55389000  1.0
  O  O105  1  0.72483000  0.59200000  0.94613000  1.0
  O  O106  1  0.86741000  0.59235000  0.44611000  1.0
  O  O107  1  0.27517000  0.40800000  0.05387000  1.0
  O  O108  1  0.12902000  0.38926000  0.73857000  1.0
  O  O109  1  0.73932000  0.61057000  0.76141000  1.0
  O  O110  1  0.87098000  0.61074000  0.26144000  1.0
  O  O111  1  0.26068000  0.38943000  0.23859000  1.0
  O  O112  1  0.84187000  0.41707000  0.69842000  1.0
  O  O113  1  0.42445000  0.58256000  0.80160000  1.0
  O  O114  1  0.15813000  0.58293000  0.30158000  1.0
  O  O115  1  0.57554000  0.41744000  0.19840000  1.0
  O  O116  1  0.74769000  0.46418000  0.53650000  1.0
  O  O117  1  0.28349000  0.53612000  0.96354000  1.0
  O  O118  1  0.25232000  0.53582000  0.46350000  1.0
  O  O119  1  0.71651000  0.46389000  0.03646000  1.0
  O  O120  1  0.51487000  0.37170000  0.81413000  1.0
  O  O121  1  0.14277000  0.62809000  0.68567000  1.0
  O  O122  1  0.48514000  0.62830000  0.18587000  1.0
  O  O123  1  0.85723000  0.37191000  0.31433000  1.0
  O  O124  1  0.48625000  0.60472000  0.60474000  1.0
  O  O125  1  0.88166000  0.39525000  0.89521000  1.0
  O  O126  1  0.51375000  0.39528000  0.39526000  1.0
  O  O127  1  0.11834000  0.60475000  0.10479000  1.0
