# generated using pymatgen
data_ZnH15C19N3O4
_symmetry_space_group_name_H-M   'P 1'
_cell_length_a   9.14557000
_cell_length_b   10.20830000
_cell_length_c   10.27970000
_cell_angle_alpha   64.98270000
_cell_angle_beta   73.07150000
_cell_angle_gamma   76.75360000
_symmetry_Int_Tables_number   1
_chemical_formula_structural   ZnH15C19N3O4
_chemical_formula_sum   'Zn2 H30 C38 N6 O8'
_cell_volume   825.75207725
_cell_formula_units_Z   2
loop_
 _symmetry_equiv_pos_site_id
 _symmetry_equiv_pos_as_xyz
  1  'x, y, z'
loop_
 _atom_site_type_symbol
 _atom_site_label
 _atom_site_symmetry_multiplicity
 _atom_site_fract_x
 _atom_site_fract_y
 _atom_site_fract_z
 _atom_site_occupancy
  Zn  Zn0  1  0.88532000  0.60779000  0.12466000  1.0
  Zn  Zn1  1  0.11468000  0.39221000  0.87534000  1.0
  H  H2  1  0.45360000  0.94424000  0.92072000  1.0
  H  H3  1  0.54640000  0.05575000  0.07928000  1.0
  H  H4  1  0.86671000  0.88335000  0.85725000  1.0
  H  H5  1  0.13329000  0.11665000  0.14275000  1.0
  H  H6  1  0.02790000  0.09034000  0.70827000  1.0
  H  H7  1  0.97210000  0.90966000  0.29173000  1.0
  H  H8  1  0.27509000  0.07865000  0.77075000  1.0
  H  H9  1  0.72491000  0.92135000  0.22925000  1.0
  H  H10  1  0.16543000  0.67685000  0.13949000  1.0
  H  H11  1  0.83457000  0.32315000  0.86051000  1.0
  H  H12  1  0.54908000  0.75231000  0.11291000  1.0
  H  H13  1  0.45091000  0.24769000  0.88709000  1.0
  H  H14  1  0.39112000  0.65758000  0.16348000  1.0
  H  H15  1  0.60888000  0.34242000  0.83653000  1.0
  H  H16  1  0.19373000  0.66249000  0.38276000  1.0
  H  H17  1  0.80626000  0.33752000  0.61724000  1.0
  H  H18  1  0.09584000  0.76105000  0.58236000  1.0
  H  H19  1  0.90416000  0.23895000  0.41764000  1.0
  H  H20  1  0.20483000  0.97880000  0.55452000  1.0
  H  H21  1  0.79517000  0.02120000  0.44548000  1.0
  H  H22  1  0.40820000  0.08562000  0.33066000  1.0
  H  H23  1  0.59180000  0.91438000  0.66934000  1.0
  H  H24  1  0.48943000  0.64218000  0.50135000  1.0
  H  H25  1  0.51057000  0.35782000  0.49865000  1.0
  H  H26  1  0.35758000  0.64575000  0.74969000  1.0
  H  H27  1  0.64242000  0.35425000  0.25031000  1.0
  H  H28  1  0.51329000  0.62983000  0.91990000  1.0
  H  H29  1  0.48671000  0.37017000  0.08010000  1.0
  H  H30  1  0.92749000  0.61412000  0.59173000  1.0
  H  H31  1  0.07251000  0.38588000  0.40827000  1.0
  C  C32  1  0.97455000  0.88381000  0.88185000  1.0
  C  C33  1  0.02545000  0.11619000  0.11815000  1.0
  C  C34  1  0.06615000  0.99641000  0.79847000  1.0
  C  C35  1  0.93385000  0.00359000  0.20153000  1.0
  C  C36  1  0.20288000  0.99098000  0.83390000  1.0
  C  C37  1  0.79712000  0.00902000  0.16610000  1.0
  C  C38  1  0.24770000  0.87308000  0.95704000  1.0
  C  C39  1  0.75231000  0.12692000  0.04296000  1.0
  C  C40  1  0.14587000  0.76651000  0.03828000  1.0
  C  C41  1  0.85413000  0.23349000  0.96172000  1.0
  C  C42  1  0.42331000  0.76618000  0.13079000  1.0
  C  C43  1  0.57669000  0.23382000  0.86921000  1.0
  C  C44  1  0.35468000  0.82079000  0.25446000  1.0
  C  C45  1  0.64532000  0.17921000  0.74554000  1.0
  C  C46  1  0.23987000  0.75523000  0.37552000  1.0
  C  C47  1  0.76012000  0.24477000  0.62448000  1.0
  C  C48  1  0.18370000  0.81166000  0.48558000  1.0
  C  C49  1  0.81630000  0.18834000  0.51443000  1.0
  C  C50  1  0.24386000  0.93210000  0.47091000  1.0
  C  C51  1  0.75614000  0.06790000  0.52909000  1.0
  C  C52  1  0.35764000  0.99137000  0.34646000  1.0
  C  C53  1  0.64235000  0.00864000  0.65354000  1.0
  C  C54  1  0.80237000  0.62928000  0.38252000  1.0
  C  C55  1  0.19763000  0.37072000  0.61748000  1.0
  C  C56  1  0.71653000  0.63280000  0.52968000  1.0
  C  C57  1  0.28347000  0.36720000  0.47032000  1.0
  C  C58  1  0.55580000  0.63948000  0.57504000  1.0
  C  C59  1  0.44420000  0.36052000  0.42496000  1.0
  C  C60  1  0.48256000  0.64039000  0.71457000  1.0
  C  C61  1  0.51745000  0.35961000  0.28543000  1.0
  C  C62  1  0.56910000  0.63059000  0.81062000  1.0
  C  C63  1  0.43090000  0.36941000  0.18938000  1.0
  C  C64  1  0.73059000  0.62044000  0.76709000  1.0
  C  C65  1  0.26941000  0.37956000  0.23291000  1.0
  C  C66  1  0.80278000  0.62382000  0.62600000  1.0
  C  C67  1  0.19722000  0.37618000  0.37400000  1.0
  C  C68  1  0.82722000  0.60199000  0.86984000  1.0
  C  C69  1  0.17278000  0.39801000  0.13016000  1.0
  N  N70  1  0.01576000  0.77205000  0.99954000  1.0
  N  N71  1  0.98424000  0.22795000  0.00046000  1.0
  N  N72  1  0.38165000  0.86624000  0.99319000  1.0
  N  N73  1  0.61835000  0.13375000  0.00681000  1.0
  N  N74  1  0.41163000  0.93792000  0.24037000  1.0
  N  N75  1  0.58837000  0.06208000  0.75963000  1.0
  O  O76  1  0.94370000  0.64107000  0.34165000  1.0
  O  O77  1  0.05630000  0.35893000  0.65835000  1.0
  O  O78  1  0.72585000  0.61230000  0.30298000  1.0
  O  O79  1  0.27415000  0.38770000  0.69702000  1.0
  O  O80  1  0.97385000  0.58104000  0.82873000  1.0
  O  O81  1  0.02615000  0.41897000  0.17127000  1.0
  O  O82  1  0.75762000  0.60967000  0.99434000  1.0
  O  O83  1  0.24238000  0.39033000  0.00566000  1.0
