# generated using pymatgen
data_MoH8C10N2O3
_symmetry_space_group_name_H-M   'P 1'
_cell_length_a   7.33899000
_cell_length_b   8.53748000
_cell_length_c   8.53753000
_cell_angle_alpha   67.29140000
_cell_angle_beta   80.35690000
_cell_angle_gamma   80.35690000
_symmetry_Int_Tables_number   1
_chemical_formula_structural   MoH8C10N2O3
_chemical_formula_sum   'Mo2 H16 C20 N4 O6'
_cell_volume   483.37063503
_cell_formula_units_Z   2
loop_
 _symmetry_equiv_pos_site_id
 _symmetry_equiv_pos_as_xyz
  1  'x, y, z'
loop_
 _atom_site_type_symbol
 _atom_site_label
 _atom_site_symmetry_multiplicity
 _atom_site_fract_x
 _atom_site_fract_y
 _atom_site_fract_z
 _atom_site_occupancy
  Mo  Mo0  1  0.11295000  0.84253000  0.79336000  1.0
  Mo  Mo1  1  0.61295000  0.79336000  0.84253000  1.0
  H  H2  1  0.99447000  0.24247000  0.69249000  1.0
  H  H3  1  0.49447000  0.69249000  0.24247000  1.0
  H  H4  1  0.89825000  0.47117000  0.82003000  1.0
  H  H5  1  0.39825000  0.82003000  0.47117000  1.0
  H  H6  1  0.88268000  0.38436000  0.13468000  1.0
  H  H7  1  0.38268000  0.13468000  0.38436000  1.0
  H  H8  1  0.96749000  0.07686000  0.31435000  1.0
  H  H9  1  0.46749000  0.31435000  0.07686000  1.0
  H  H10  1  0.00240000  0.82131000  0.44684000  1.0
  H  H11  1  0.50240000  0.44683000  0.82131000  1.0
  H  H12  1  0.09018000  0.51395000  0.58801000  1.0
  H  H13  1  0.59018000  0.58801000  0.51395000  1.0
  H  H14  1  0.17813000  0.32896000  0.40921000  1.0
  H  H15  1  0.67813000  0.40921000  0.32896000  1.0
  H  H16  1  0.19602000  0.47614000  0.08869000  1.0
  H  H17  1  0.69603000  0.08869000  0.47614000  1.0
  C  C18  1  0.98530000  0.21328000  0.82942000  1.0
  C  C19  1  0.48531000  0.82943000  0.21328000  1.0
  C  C20  1  0.93230000  0.33827000  0.90027000  1.0
  C  C21  1  0.43231000  0.90027000  0.33827000  1.0
  C  C22  1  0.92369000  0.28862000  0.07676000  1.0
  C  C23  1  0.42369000  0.07676000  0.28862000  1.0
  C  C24  1  0.96725000  0.11738000  0.17656000  1.0
  C  C25  1  0.46725000  0.17657000  0.11737000  1.0
  C  C26  1  0.01412000  0.99828000  0.09633000  1.0
  C  C27  1  0.51413000  0.09632000  0.99827000  1.0
  C  C28  1  0.05615000  0.81360000  0.19144000  1.0
  C  C29  1  0.55616000  0.19144000  0.81360000  1.0
  C  C30  1  0.04489000  0.74241000  0.36993000  1.0
  C  C31  1  0.54489000  0.36992000  0.74242000  1.0
  C  C32  1  0.09195000  0.56752000  0.44982000  1.0
  C  C33  1  0.59195000  0.44982000  0.56752000  1.0
  C  C34  1  0.14523000  0.46697000  0.35078000  1.0
  C  C35  1  0.64524000  0.35078000  0.46697000  1.0
  C  C36  1  0.15381000  0.54680000  0.17361000  1.0
  C  C37  1  0.65381000  0.17361000  0.54680000  1.0
  N  N38  1  0.02383000  0.04781000  0.92477000  1.0
  N  N39  1  0.52383000  0.92476000  0.04782000  1.0
  N  N40  1  0.11074000  0.71555000  0.09606000  1.0
  N  N41  1  0.61075000  0.09606000  0.71555000  1.0
  O  O42  1  0.06632000  0.99622000  0.59515000  1.0
  O  O43  1  0.56632000  0.59515000  0.99622000  1.0
  O  O44  1  0.16777000  0.64792000  0.76782000  1.0
  O  O45  1  0.66777000  0.76782000  0.64792000  1.0
  O  O46  1  0.34763000  0.88607000  0.80777000  1.0
  O  O47  1  0.84763000  0.80777000  0.88607000  1.0
