# generated using pymatgen
data_Al6H50C99O31
_symmetry_space_group_name_H-M   'P 1'
_cell_length_a   12.70300000
_cell_length_b   12.93115905
_cell_length_c   27.68120000
_cell_angle_alpha   88.46642900
_cell_angle_beta   89.24540000
_cell_angle_gamma   61.40931478
_symmetry_Int_Tables_number   1
_chemical_formula_structural   Al6H50C99O31
_chemical_formula_sum   'Al6 H50 C99 O31'
_cell_volume   3991.14608772
_cell_formula_units_Z   1
loop_
 _symmetry_equiv_pos_site_id
 _symmetry_equiv_pos_as_xyz
  1  'x, y, z'
loop_
 _atom_site_type_symbol
 _atom_site_label
 _atom_site_symmetry_multiplicity
 _atom_site_fract_x
 _atom_site_fract_y
 _atom_site_fract_z
 _atom_site_occupancy
  Al  Al0  1  0.39951000  0.41549000  0.50477000  1.0
  Al  Al1  1  0.42618000  0.64959000  0.50134000  1.0
  Al  Al2  1  0.65076000  0.41684000  0.50295000  1.0
  Al  Al3  1  0.92302000  0.91992000  0.01815000  1.0
  Al  Al4  1  0.67271000  0.91445000  0.01745000  1.0
  Al  Al5  1  0.89984000  0.68441000  0.01843000  1.0
  H  H6  1  0.47273000  0.83805000  0.78607000  1.0
  H  H7  1  0.53113000  0.87597000  0.14421000  1.0
  H  H8  1  0.61569000  0.86166000  0.71162000  1.0
  H  H9  1  0.48940000  0.78656000  0.38363000  1.0
  H  H10  1  0.42857000  0.94734000  0.22223000  1.0
  H  H11  1  0.41617000  0.91791000  0.31049000  1.0
  H  H12  1  0.84333000  0.53490000  0.13556000  1.0
  H  H13  1  0.91803000  0.40514000  0.20974000  1.0
  H  H14  1  0.91129000  0.37694000  0.29635000  1.0
  H  H15  1  0.86428000  0.07394000  0.14321000  1.0
  H  H16  1  0.79426000  0.23698000  0.37644000  1.0
  H  H17  1  0.50008000  0.28878000  0.79067000  1.0
  H  H18  1  0.94415000  0.11462000  0.21673000  1.0
  H  H19  1  0.50936000  0.62361000  0.74534000  1.0
  H  H20  1  0.92130000  0.17030000  0.30274000  1.0
  H  H21  1  0.35488000  0.24482000  0.30221000  1.0
  H  H22  1  0.43997000  0.27438000  0.37727000  1.0
  H  H23  1  0.05857000  0.53879000  0.15079000  1.0
  H  H24  1  0.21141000  0.49024000  0.38734000  1.0
  H  H25  1  0.09170000  0.43582000  0.23008000  1.0
  H  H26  1  0.14392000  0.41905000  0.31701000  1.0
  H  H27  1  0.11603000  0.83805000  0.13270000  1.0
  H  H28  1  0.50573000  0.12431000  0.72365000  1.0
  H  H29  1  0.71639000  0.49885000  0.80478000  1.0
  H  H30  1  0.23726000  0.89327000  0.29014000  1.0
  H  H31  1  0.26753000  0.79109000  0.37018000  1.0
  H  H32  1  0.85846000  0.52189000  0.72989000  1.0
  H  H33  1  0.82250000  0.73499000  0.77031000  1.0
  H  H34  1  0.85880000  0.13769000  0.78627000  1.0
  H  H35  1  0.86376000  0.97190000  0.71965000  1.0
  H  H36  1  0.42475000  0.46633000  0.76250000  1.0
  H  H37  1  0.89785000  0.39447000  0.36085000  1.0
  H  H38  1  0.52585000  0.07697000  0.10488000  1.0
  H  H39  1  0.69405000  0.94179000  0.77820000  1.0
  H  H40  1  0.30619000  0.26548000  0.18135000  1.0
  H  H41  1  0.34993000  0.11799000  0.19624000  1.0
  H  H42  1  0.26350000  0.22960000  0.23837000  1.0
  H  H43  1  0.21113000  0.99377000  0.21596000  1.0
  H  H44  1  0.26191000  0.89557000  0.16677000  1.0
  H  H45  1  0.10711000  0.98899000  0.17473000  1.0
  H  H46  1  0.66287000  0.40278000  0.75954000  1.0
  H  H47  1  0.75194000  0.33581000  0.70783000  1.0
  H  H48  1  0.59323000  0.40337000  0.70404000  1.0
  H  H49  1  0.19988000  0.47718000  0.78747000  1.0
  H  H50  1  0.02522000  0.61537000  0.71712000  1.0
  H  H51  1  0.28138000  0.73923000  0.80239000  1.0
  H  H52  1  0.10584000  0.87666000  0.73197000  1.0
  H  H53  1  0.94354000  0.81362000  0.77823000  1.0
  H  H54  1  0.29734000  0.31889000  0.53688000  1.0
  H  H55  1  0.00640000  0.03803000  0.99071000  1.0
  C  C56  1  0.28331000  0.62050000  0.57174000  1.0
  C  C57  1  0.64679000  0.64314000  0.66018000  1.0
  C  C58  1  0.78326000  0.04241000  0.73580000  1.0
  C  C59  1  0.60843000  0.59799000  0.57121000  1.0
  C  C60  1  0.78055000  0.13447000  0.77197000  1.0
  C  C61  1  0.69176000  0.08912000  0.89909000  1.0
  C  C62  1  0.65467000  0.20539000  0.61361000  1.0
  C  C63  1  0.68877000  0.02588000  0.76717000  1.0
  C  C64  1  0.68609000  0.11816000  0.80448000  1.0
  C  C65  1  0.58402000  0.12717000  0.73800000  1.0
  C  C66  1  0.67821000  0.14365000  0.70553000  1.0
  C  C67  1  0.63453000  0.62533000  0.61810000  1.0
  C  C68  1  0.58107000  0.21947000  0.77398000  1.0
  C  C69  1  0.67595000  0.23679000  0.74290000  1.0
  C  C70  1  0.68848000  0.10352000  0.85531000  1.0
  C  C71  1  0.61889000  0.27097000  0.56863000  1.0
  C  C72  1  0.66989000  0.16904000  0.65539000  1.0
  C  C73  1  0.08159000  0.64285000  0.73662000  1.0
  C  C74  1  0.17888000  0.56595000  0.77495000  1.0
  C  C75  1  0.08886000  0.68912000  0.90190000  1.0
  C  C76  1  0.22836000  0.65659000  0.61843000  1.0
  C  C77  1  0.03675000  0.75291000  0.76921000  1.0
  C  C78  1  0.75250000  0.71055000  0.76440000  1.0
  C  C79  1  0.13440000  0.67581000  0.80865000  1.0
  C  C80  1  0.12678000  0.78812000  0.74464000  1.0
  C  C81  1  0.17178000  0.67859000  0.71061000  1.0
  C  C82  1  0.22440000  0.71221000  0.78302000  1.0
  C  C83  1  0.28639000  0.62036000  0.43376000  1.0
  C  C84  1  0.26892000  0.60146000  0.75040000  1.0
  C  C85  1  0.11168000  0.67974000  0.85883000  1.0
  C  C86  1  0.19820000  0.67168000  0.66073000  1.0
  C  C87  1  0.56401000  0.72250000  0.36247000  1.0
  C  C88  1  0.57145000  0.74345000  0.31314000  1.0
  C  C89  1  0.67265000  0.69775000  0.80645000  1.0
  C  C90  1  0.58545000  0.77749000  0.21175000  1.0
  C  C91  1  0.49316000  0.86619000  0.24038000  1.0
  C  C92  1  0.48643000  0.84972000  0.28893000  1.0
  C  C93  1  0.59477000  0.79360000  0.16193000  1.0
  C  C94  1  0.68778000  0.70672000  0.13495000  1.0
  C  C95  1  0.62238000  0.59876000  0.43712000  1.0
  C  C96  1  0.74750000  0.53504000  0.36002000  1.0
  C  C97  1  0.75399000  0.54921000  0.30915000  1.0
  C  C98  1  0.66598000  0.65423000  0.28574000  1.0
  C  C99  1  0.84474000  0.46054000  0.28008000  1.0
  C  C100  1  0.77280000  0.59212000  0.74268000  1.0
  C  C101  1  0.84942000  0.47506000  0.23118000  1.0
  C  C102  1  0.76484000  0.58120000  0.20695000  1.0
  C  C103  1  0.67206000  0.67066000  0.23494000  1.0
  C  C104  1  0.77134000  0.60078000  0.15718000  1.0
  C  C105  1  0.64870000  0.61964000  0.38647000  1.0
  C  C106  1  0.72307000  0.23114000  0.35718000  1.0
  C  C107  1  0.59563000  0.30073000  0.43189000  1.0
  C  C108  1  0.73871000  0.19801000  0.30873000  1.0
  C  C109  1  0.76620000  0.13224000  0.21028000  1.0
  C  C110  1  0.86070000  0.13760000  0.23602000  1.0
  C  C111  1  0.65830000  0.66200000  0.70954000  1.0
  C  C112  1  0.84801000  0.16867000  0.28322000  1.0
  C  C113  1  0.78075000  0.09724000  0.16246000  1.0
  C  C114  1  0.69012000  0.08815000  0.13779000  1.0
  C  C115  1  0.52255000  0.25244000  0.35754000  1.0
  C  C116  1  0.53416000  0.22125000  0.30885000  1.0
  C  C117  1  0.64292000  0.19349000  0.28377000  1.0
  C  C118  1  0.43897000  0.21931000  0.28294000  1.0
  C  C119  1  0.63782000  0.78111000  0.73267000  1.0
  C  C120  1  0.44671000  0.19070000  0.23515000  1.0
  C  C121  1  0.55865000  0.15689000  0.20964000  1.0
  C  C122  1  0.69333000  0.57887000  0.78323000  1.0
  C  C123  1  0.65511000  0.16106000  0.23440000  1.0
  C  C124  1  0.57910000  0.11806000  0.16105000  1.0
  C  C125  1  0.61580000  0.25822000  0.38140000  1.0
  C  C126  1  0.20955000  0.56011000  0.36383000  1.0
  C  C127  1  0.17797000  0.56860000  0.31504000  1.0
  C  C128  1  0.11806000  0.58721000  0.21516000  1.0
  C  C129  1  0.11692000  0.49697000  0.24601000  1.0
  C  C130  1  0.14539000  0.48797000  0.29381000  1.0
  C  C131  1  0.55828000  0.76768000  0.77326000  1.0
  C  C132  1  0.08580000  0.59890000  0.16630000  1.0
  C  C133  1  0.57848000  0.64912000  0.75162000  1.0
  C  C134  1  0.08473000  0.68993000  0.13757000  1.0
  C  C135  1  0.24138000  0.73064000  0.35423000  1.0
  C  C136  1  0.21082000  0.74193000  0.30516000  1.0
  C  C137  1  0.17956000  0.65968000  0.28505000  1.0
  C  C138  1  0.21218000  0.83184000  0.27421000  1.0
  C  C139  1  0.18534000  0.84200000  0.22600000  1.0
  C  C140  1  0.15209000  0.76019000  0.20525000  1.0
  C  C141  1  0.15029000  0.66905000  0.23523000  1.0
  C  C142  1  0.11885000  0.76869000  0.15669000  1.0
  C  C143  1  0.69445000  0.71870000  0.89970000  1.0
  C  C144  1  0.68345000  0.71115000  0.85640000  1.0
  C  C145  1  0.24175000  0.64003000  0.38314000  1.0
  C  C146  1  0.71298000  0.04867000  0.94868000  1.0
  C  C147  1  0.71931000  0.73570000  0.94841000  1.0
  C  C148  1  0.04049000  0.71997000  0.94975000  1.0
  C  C149  1  0.71823000  0.04007000  0.08878000  1.0
  C  C150  1  0.70643000  0.73269000  0.08402000  1.0
  C  C151  1  0.03685000  0.71247000  0.08755000  1.0
  C  C152  1  0.33587000  0.20091000  0.21155000  1.0
  C  C153  1  0.19145000  0.93515000  0.19440000  1.0
  C  C154  1  0.67046000  0.35078000  0.72767000  1.0
  O  O155  1  0.51258000  0.30581000  0.55497000  1.0
  O  O156  1  0.81980000  0.65858000  0.96629000  1.0
  O  O157  1  0.02528000  0.64225000  0.97467000  1.0
  O  O158  1  0.31073000  0.51703000  0.55988000  1.0
  O  O159  1  0.02613000  0.80363000  0.06527000  1.0
  O  O160  1  0.82061000  0.00982000  0.07157000  1.0
  O  O161  1  0.63505000  0.02796000  0.06558000  1.0
  O  O162  1  0.63285000  0.83415000  0.06577000  1.0
  O  O163  1  0.79887000  0.65642000  0.06169000  1.0
  O  O164  1  0.00387000  0.64009000  0.07058000  1.0
  O  O165  1  0.83003000  0.83962000  0.01749000  1.0
  O  O166  1  0.52322000  0.67630000  0.45534000  1.0
  O  O167  1  0.30373000  0.69508000  0.54696000  1.0
  O  O168  1  0.51228000  0.67612000  0.55072000  1.0
  O  O169  1  0.67987000  0.49661000  0.55478000  1.0
  O  O170  1  0.69724000  0.29320000  0.54730000  1.0
  O  O171  1  0.49680000  0.32324000  0.45156000  1.0
  O  O172  1  0.29597000  0.53038000  0.45651000  1.0
  O  O173  1  0.31761000  0.69414000  0.45058000  1.0
  O  O174  1  0.38607000  0.52612000  0.73707000  1.0
  O  O175  1  0.83448000  0.44018000  0.38374000  1.0
  O  O176  1  0.49210000  0.10799000  0.13747000  1.0
  O  O177  1  0.69392000  0.50269000  0.45920000  1.0
  O  O178  1  0.67874000  0.31558000  0.45169000  1.0
  O  O179  1  0.49308000  0.49490000  0.50364000  1.0
  O  O180  1  0.01236000  0.82288000  0.96268000  1.0
  O  O181  1  0.81061000  0.03000000  0.96753000  1.0
  O  O182  1  0.63173000  0.02937000  0.96925000  1.0
  O  O183  1  0.64258000  0.82865000  0.96949000  1.0
  O  O184  1  0.31242000  0.34333000  0.50542000  1.0
  O  O185  1  0.00724000  0.99474000  0.01984000  1.0
