# generated using pymatgen
data_LiH2C3NO2
_symmetry_space_group_name_H-M   'P 1'
_cell_length_a   9.85242000
_cell_length_b   9.85240000
_cell_length_c   10.16083017
_cell_angle_alpha   113.40504501
_cell_angle_beta   113.40519010
_cell_angle_gamma   100.40900000
_symmetry_Int_Tables_number   1
_chemical_formula_structural   LiH2C3NO2
_chemical_formula_sum   'Li8 H16 C24 N8 O16'
_cell_volume   760.64793704
_cell_formula_units_Z   8
loop_
 _symmetry_equiv_pos_site_id
 _symmetry_equiv_pos_as_xyz
  1  'x, y, z'
loop_
 _atom_site_type_symbol
 _atom_site_label
 _atom_site_symmetry_multiplicity
 _atom_site_fract_x
 _atom_site_fract_y
 _atom_site_fract_z
 _atom_site_occupancy
  Li  Li0  1  0.19938000  0.36294000  0.73081000  1.0
  Li  Li1  1  0.63213000  0.46857000  0.26919000  1.0
  Li  Li2  1  0.61294000  0.94938000  0.23081000  1.0
  Li  Li3  1  0.71857000  0.38213000  0.76920000  1.0
  Li  Li4  1  0.38401000  0.62162000  0.11570000  1.0
  Li  Li5  1  0.50592000  0.26832000  0.88430000  1.0
  Li  Li6  1  0.87162000  0.13402000  0.61570000  1.0
  Li  Li7  1  0.51832000  0.25592000  0.38430000  1.0
  H  H8  1  0.52207000  0.92518000  0.59923000  1.0
  H  H9  1  0.32595000  0.92283000  0.40076000  1.0
  H  H10  1  0.17518000  0.27207000  0.09923000  1.0
  H  H11  1  0.17284000  0.07595000  0.90077000  1.0
  H  H12  1  0.45591000  0.63861000  0.48716000  1.0
  H  H13  1  0.15145000  0.96875000  0.51285000  1.0
  H  H14  1  0.88861000  0.20590000  0.98715000  1.0
  H  H15  1  0.21875000  0.90146000  0.01285000  1.0
  H  H16  1  0.29348000  0.55089000  0.50678000  1.0
  H  H17  1  0.04411000  0.78671000  0.49322000  1.0
  H  H18  1  0.80090000  0.04349000  0.00679000  1.0
  H  H19  1  0.03670000  0.79411000  0.99321000  1.0
  H  H20  1  0.49230000  0.57329000  0.63422000  1.0
  H  H21  1  0.93906000  0.85808000  0.36577000  1.0
  H  H22  1  0.82330000  0.24232000  0.13423000  1.0
  H  H23  1  0.10808000  0.68906000  0.86577000  1.0
  C  C24  1  0.39405000  0.70499000  0.88005000  1.0
  C  C25  1  0.82493000  0.51400000  0.11995000  1.0
  C  C26  1  0.95496000  0.14403000  0.38003000  1.0
  C  C27  1  0.76401000  0.57494000  0.61997000  1.0
  C  C28  1  0.44493000  0.83044000  0.84193000  1.0
  C  C29  1  0.98851000  0.60300000  0.15807000  1.0
  C  C30  1  0.08043000  0.19494000  0.34193000  1.0
  C  C31  1  0.85301000  0.73850000  0.65807000  1.0
  C  C32  1  0.47929000  0.99573000  0.91507000  1.0
  C  C33  1  0.08066000  0.56422000  0.08493000  1.0
  C  C34  1  0.24572000  0.22929000  0.41507000  1.0
  C  C35  1  0.81422000  0.83064000  0.58492000  1.0
  C  C36  1  0.49044000  0.11857000  0.06820000  1.0
  C  C37  1  0.05037000  0.42224000  0.93180000  1.0
  C  C38  1  0.36856000  0.24044000  0.56820000  1.0
  C  C39  1  0.67224000  0.80036000  0.43180000  1.0
  C  C40  1  0.49721000  0.92370000  0.69370000  1.0
  C  C41  1  0.23000000  0.80351000  0.30631000  1.0
  C  C42  1  0.17370000  0.24722000  0.19370000  1.0
  C  C43  1  0.05352000  0.98001000  0.80631000  1.0
  C  C44  1  0.42195000  0.62737000  0.57381000  1.0
  C  C45  1  0.05356000  0.84814000  0.42619000  1.0
  C  C46  1  0.87738000  0.17196000  0.07381000  1.0
  C  C47  1  0.09815000  0.80357000  0.92619000  1.0
  N  N48  1  0.50857000  0.04947000  0.81846000  1.0
  N  N49  1  0.23101000  0.69010000  0.18154000  1.0
  N  N50  1  0.29946000  0.25857000  0.31846000  1.0
  N  N51  1  0.94011000  0.98101000  0.68154000  1.0
  N  N52  1  0.45509000  0.78805000  0.69996000  1.0
  N  N53  1  0.08809000  0.75513000  0.30004000  1.0
  N  N54  1  0.03805000  0.20510000  0.19996000  1.0
  N  N55  1  0.00514000  0.83809000  0.80004000  1.0
  O  O56  1  0.46206000  0.74365000  0.03333000  1.0
  O  O57  1  0.71032000  0.42873000  0.96667000  1.0
  O  O58  1  0.99364000  0.21206000  0.53333000  1.0
  O  O59  1  0.67872000  0.46031000  0.46666000  1.0
  O  O60  1  0.28620000  0.56908000  0.75636000  1.0
  O  O61  1  0.81272000  0.52985000  0.24364000  1.0
  O  O62  1  0.81907000  0.03619000  0.25636000  1.0
  O  O63  1  0.77983000  0.56271000  0.74363000  1.0
  O  O64  1  0.50642000  0.09160000  0.18517000  1.0
  O  O65  1  0.90643000  0.32125000  0.81483000  1.0
  O  O66  1  0.34160000  0.25643000  0.68518000  1.0
  O  O67  1  0.57124000  0.65641000  0.31482000  1.0
  O  O68  1  0.48510000  0.24907000  0.07201000  1.0
  O  O69  1  0.17706000  0.41309000  0.92799000  1.0
  O  O70  1  0.49906000  0.23511000  0.57201000  1.0
  O  O71  1  0.66310000  0.92705000  0.42799000  1.0
