# generated using pymatgen
data_H5PbC4O5
_symmetry_space_group_name_H-M   'P 1'
_cell_length_a   7.27676000
_cell_length_b   7.83644000
_cell_length_c   12.02030000
_cell_angle_alpha   90.00130000
_cell_angle_beta   102.17600000
_cell_angle_gamma   89.99160000
_symmetry_Int_Tables_number   1
_chemical_formula_structural   H5PbC4O5
_chemical_formula_sum   'H20 Pb4 C16 O20'
_cell_volume   670.02476525
_cell_formula_units_Z   4
loop_
 _symmetry_equiv_pos_site_id
 _symmetry_equiv_pos_as_xyz
  1  'x, y, z'
loop_
 _atom_site_type_symbol
 _atom_site_label
 _atom_site_symmetry_multiplicity
 _atom_site_fract_x
 _atom_site_fract_y
 _atom_site_fract_z
 _atom_site_occupancy
  H  H0  1  0.14518000  0.69155000  0.39337000  1.0
  H  H1  1  0.85471000  0.19164000  0.10658000  1.0
  H  H2  1  0.85485000  0.30839000  0.60663000  1.0
  H  H3  1  0.14527000  0.80840000  0.89340000  1.0
  H  H4  1  0.97851000  0.79298000  0.45752000  1.0
  H  H5  1  0.02141000  0.29307000  0.04246000  1.0
  H  H6  1  0.02154000  0.20698000  0.54249000  1.0
  H  H7  1  0.97855000  0.70697000  0.95750000  1.0
  H  H8  1  0.03661000  0.58504000  0.61741000  1.0
  H  H9  1  0.96337000  0.08508000  0.88259000  1.0
  H  H10  1  0.96339000  0.41494000  0.38259000  1.0
  H  H11  1  0.03660000  0.91495000  0.11739000  1.0
  H  H12  1  0.27613000  0.10106000  0.85855000  1.0
  H  H13  1  0.72387000  0.60105000  0.64148000  1.0
  H  H14  1  0.72392000  0.89893000  0.14146000  1.0
  H  H15  1  0.27610000  0.39890000  0.35855000  1.0
  H  H16  1  0.20811000  0.22495000  0.75356000  1.0
  H  H17  1  0.79193000  0.72499000  0.74646000  1.0
  H  H18  1  0.79195000  0.77506000  0.24646000  1.0
  H  H19  1  0.20808000  0.27507000  0.25350000  1.0
  Pb  Pb20  1  0.51025000  0.10394000  0.67341000  1.0
  Pb  Pb21  1  0.48970000  0.60400000  0.82658000  1.0
  Pb  Pb22  1  0.48975000  0.89609000  0.32658000  1.0
  Pb  Pb23  1  0.51031000  0.39609000  0.17347000  1.0
  C  C24  1  0.11012000  0.71889000  0.47647000  1.0
  C  C25  1  0.88984000  0.21895000  0.02350000  1.0
  C  C26  1  0.88992000  0.28106000  0.52353000  1.0
  C  C27  1  0.11012000  0.78109000  0.97648000  1.0
  C  C28  1  0.07939000  0.55369000  0.53744000  1.0
  C  C29  1  0.92059000  0.05372000  0.96255000  1.0
  C  C30  1  0.92063000  0.44627000  0.46256000  1.0
  C  C31  1  0.07938000  0.94631000  0.03743000  1.0
  C  C32  1  0.25571000  0.44250000  0.56834000  1.0
  C  C33  1  0.74425000  0.94255000  0.93165000  1.0
  C  C34  1  0.74429000  0.55744000  0.43169000  1.0
  C  C35  1  0.25572000  0.05749000  0.06833000  1.0
  C  C36  1  0.25555000  0.84046000  0.54151000  1.0
  C  C37  1  0.74440000  0.34051000  0.95843000  1.0
  C  C38  1  0.74450000  0.15949000  0.45849000  1.0
  C  C39  1  0.25554000  0.65951000  0.04155000  1.0
  O  O40  1  0.31103000  0.40031000  0.67447000  1.0
  O  O41  1  0.68891000  0.90033000  0.82553000  1.0
  O  O42  1  0.68899000  0.59973000  0.32558000  1.0
  O  O43  1  0.31103000  0.09976000  0.17445000  1.0
  O  O44  1  0.33642000  0.38649000  0.49324000  1.0
  O  O45  1  0.66353000  0.88659000  0.00675000  1.0
  O  O46  1  0.66354000  0.61336000  0.50680000  1.0
  O  O47  1  0.33647000  0.11341000  0.99323000  1.0
  O  O48  1  0.34815000  0.80406000  0.64089000  1.0
  O  O49  1  0.65179000  0.30411000  0.85906000  1.0
  O  O50  1  0.65176000  0.19597000  0.35916000  1.0
  O  O51  1  0.34823000  0.69594000  0.14090000  1.0
  O  O52  1  0.27835000  0.98181000  0.49270000  1.0
  O  O53  1  0.72160000  0.48187000  0.00724000  1.0
  O  O54  1  0.72182000  0.01807000  0.50725000  1.0
  O  O55  1  0.27827000  0.51811000  0.99276000  1.0
  O  O56  1  0.23756000  0.10456000  0.77226000  1.0
  O  O57  1  0.76244000  0.60462000  0.72777000  1.0
  O  O58  1  0.76252000  0.89544000  0.22775000  1.0
  O  O59  1  0.23753000  0.39543000  0.27226000  1.0
