# generated using pymatgen
data_Mn3H32C24(NO7)2
_symmetry_space_group_name_H-M   'P 1'
_cell_length_a   8.85449000
_cell_length_b   9.12179000
_cell_length_c   9.32080000
_cell_angle_alpha   92.56100000
_cell_angle_beta   96.97630000
_cell_angle_gamma   114.86800000
_symmetry_Int_Tables_number   1
_chemical_formula_structural   Mn3H32C24(NO7)2
_chemical_formula_sum   'Mn3 H32 C24 N2 O14'
_cell_volume   674.12615664
_cell_formula_units_Z   1
loop_
 _symmetry_equiv_pos_site_id
 _symmetry_equiv_pos_as_xyz
  1  'x, y, z'
loop_
 _atom_site_type_symbol
 _atom_site_label
 _atom_site_symmetry_multiplicity
 _atom_site_fract_x
 _atom_site_fract_y
 _atom_site_fract_z
 _atom_site_occupancy
  Mn  Mn0  1  0.00000000  0.50000000  0.49999000  1.0
  Mn  Mn1  1  0.12106000  0.64176000  0.86664000  1.0
  Mn  Mn2  1  0.87893000  0.35824000  0.13336000  1.0
  H  H3  1  0.82440000  0.89052000  0.51474000  1.0
  H  H4  1  0.17560000  0.10947000  0.48526000  1.0
  H  H5  1  0.58456000  0.65903000  0.58609000  1.0
  H  H6  1  0.41544000  0.34097000  0.41391000  1.0
  H  H7  1  0.64596000  0.74323000  0.77012000  1.0
  H  H8  1  0.35404000  0.25677000  0.22988000  1.0
  H  H9  1  0.52699000  0.88800000  0.51573000  1.0
  H  H10  1  0.47301000  0.11200000  0.48427000  1.0
  H  H11  1  0.54831000  0.10466000  0.70244000  1.0
  H  H12  1  0.45170000  0.89534000  0.29756000  1.0
  H  H13  1  0.62688000  0.01772000  0.83927000  1.0
  H  H14  1  0.37312000  0.98228000  0.16073000  1.0
  H  H15  1  0.79993000  0.15786000  0.57774000  1.0
  H  H16  1  0.20007000  0.84213000  0.42227000  1.0
  H  H17  1  0.03539000  0.10783000  0.69376000  1.0
  H  H18  1  0.96461000  0.89217000  0.30624000  1.0
  H  H19  1  0.92403000  0.02108000  0.83737000  1.0
  H  H20  1  0.07597000  0.97892000  0.16263000  1.0
  H  H21  1  0.20436000  0.32823000  0.03421000  1.0
  H  H22  1  0.79564000  0.67177000  0.96580000  1.0
  H  H23  1  0.39144000  0.46467000  0.71313000  1.0
  H  H24  1  0.60856000  0.53533000  0.28687000  1.0
  H  H25  1  0.38117000  0.26899000  0.66349000  1.0
  H  H26  1  0.61883000  0.73101000  0.33651000  1.0
  H  H27  1  0.55980000  0.41379000  0.78352000  1.0
  H  H28  1  0.44020000  0.58621000  0.21648000  1.0
  H  H29  1  0.45291000  0.16711000  0.96706000  1.0
  H  H30  1  0.54710000  0.83289000  0.03294000  1.0
  H  H31  1  0.28160000  0.05916000  0.82386000  1.0
  H  H32  1  0.71840000  0.94084000  0.17615000  1.0
  H  H33  1  0.24034000  0.10987000  0.99689000  1.0
  H  H34  1  0.75966000  0.89013000  0.00311000  1.0
  C  C35  1  0.92153000  0.76800000  0.66169000  1.0
  C  C36  1  0.07847000  0.23200000  0.33831000  1.0
  C  C37  1  0.82585000  0.87133000  0.63064000  1.0
  C  C38  1  0.17415000  0.12867000  0.36936000  1.0
  C  C39  1  0.64390000  0.77406000  0.65731000  1.0
  C  C40  1  0.35610000  0.22594000  0.34269000  1.0
  C  C41  1  0.53814000  0.87033000  0.63204000  1.0
  C  C42  1  0.46186000  0.12967000  0.36796000  1.0
  C  C43  1  0.36032000  0.76587000  0.66163000  1.0
  C  C44  1  0.63968000  0.23413000  0.33837000  1.0
  C  C45  1  0.62291000  0.03518000  0.72337000  1.0
  C  C46  1  0.37709000  0.96482000  0.27663000  1.0
  C  C47  1  0.80240000  0.13268000  0.69187000  1.0
  C  C48  1  0.19760000  0.86731000  0.30813000  1.0
  C  C49  1  0.90909000  0.03737000  0.72107000  1.0
  C  C50  1  0.09091000  0.96263000  0.27893000  1.0
  C  C51  1  0.88688000  0.29384000  0.78570000  1.0
  C  C52  1  0.11312000  0.70616000  0.21430000  1.0
  C  C53  1  0.27324000  0.39060000  0.94744000  1.0
  C  C54  1  0.72676000  0.60941000  0.05256000  1.0
  C  C55  1  0.42276000  0.36785000  0.75158000  1.0
  C  C56  1  0.57724000  0.63216000  0.24842000  1.0
  C  C57  1  0.32720000  0.15186000  0.91764000  1.0
  C  C58  1  0.67279000  0.84814000  0.08236000  1.0
  N  N59  1  0.33489000  0.30534000  0.87311000  1.0
  N  N60  1  0.66511000  0.69466000  0.12689000  1.0
  O  O61  1  0.95609000  0.70538000  0.55328000  1.0
  O  O62  1  0.04391000  0.29461000  0.44672000  1.0
  O  O63  1  0.95621000  0.74830000  0.79454000  1.0
  O  O64  1  0.04379000  0.25170000  0.20546000  1.0
  O  O65  1  0.27031000  0.63979000  0.57375000  1.0
  O  O66  1  0.72968000  0.36021000  0.42625000  1.0
  O  O67  1  0.31564000  0.80943000  0.77534000  1.0
  O  O68  1  0.68436000  0.19057000  0.22466000  1.0
  O  O69  1  0.88547000  0.29331000  0.92121000  1.0
  O  O70  1  0.11453000  0.70670000  0.07879000  1.0
  O  O71  1  0.96228000  0.42521000  0.72700000  1.0
  O  O72  1  0.03772000  0.57478000  0.27299000  1.0
  O  O73  1  0.29001000  0.53074000  0.92207000  1.0
  O  O74  1  0.70999000  0.46925000  0.07793000  1.0
