# generated using pymatgen
data_ZnH10C11Br2N4O
_symmetry_space_group_name_H-M   'P 1'
_cell_length_a   8.36171000
_cell_length_b   10.05380000
_cell_length_c   16.62700000
_cell_angle_alpha   89.99980000
_cell_angle_beta   89.99970000
_cell_angle_gamma   76.02000000
_symmetry_Int_Tables_number   1
_chemical_formula_structural   ZnH10C11Br2N4O
_chemical_formula_sum   'Zn4 H40 C44 Br8 N16 O4'
_cell_volume   1356.37921957
_cell_formula_units_Z   4
loop_
 _symmetry_equiv_pos_site_id
 _symmetry_equiv_pos_as_xyz
  1  'x, y, z'
loop_
 _atom_site_type_symbol
 _atom_site_label
 _atom_site_symmetry_multiplicity
 _atom_site_fract_x
 _atom_site_fract_y
 _atom_site_fract_z
 _atom_site_occupancy
  Zn  Zn0  1  0.20836000  0.73889000  0.89391000  1.0
  Zn  Zn1  1  0.29164000  0.26111000  0.39391000  1.0
  Zn  Zn2  1  0.79164000  0.26110000  0.10609000  1.0
  Zn  Zn3  1  0.70836000  0.73889000  0.60608000  1.0
  H  H4  1  0.73591000  0.24439000  0.74323000  1.0
  H  H5  1  0.76409000  0.75561000  0.24322000  1.0
  H  H6  1  0.26409000  0.75560000  0.25677000  1.0
  H  H7  1  0.23591000  0.24439000  0.75677000  1.0
  H  H8  1  0.88305000  0.08976000  0.62653000  1.0
  H  H9  1  0.61695000  0.91024000  0.12653000  1.0
  H  H10  1  0.11695000  0.91024000  0.37347000  1.0
  H  H11  1  0.38304000  0.08976000  0.87347000  1.0
  H  H12  1  0.67969000  0.39885000  0.85347000  1.0
  H  H13  1  0.82031000  0.60115000  0.35347000  1.0
  H  H14  1  0.32030000  0.60115000  0.14653000  1.0
  H  H15  1  0.17970000  0.39885000  0.64653000  1.0
  H  H16  1  0.20791000  0.71626000  0.71431000  1.0
  H  H17  1  0.29209000  0.28374000  0.21431000  1.0
  H  H18  1  0.79209000  0.28373000  0.28569000  1.0
  H  H19  1  0.70791000  0.71627000  0.78569000  1.0
  H  H20  1  0.06416000  0.51730000  0.83533000  1.0
  H  H21  1  0.43585000  0.48271000  0.33533000  1.0
  H  H22  1  0.93584000  0.48271000  0.16467000  1.0
  H  H23  1  0.56415000  0.51730000  0.66466000  1.0
  H  H24  1  0.62128000  0.53381000  0.97264000  1.0
  H  H25  1  0.87872000  0.46619000  0.47264000  1.0
  H  H26  1  0.37872000  0.46619000  0.02736000  1.0
  H  H27  1  0.12128000  0.53382000  0.52736000  1.0
  H  H28  1  0.67831000  0.73094000  0.04809000  1.0
  H  H29  1  0.82169000  0.26906000  0.54809000  1.0
  H  H30  1  0.32169000  0.26906000  0.95191000  1.0
  H  H31  1  0.17831000  0.73094000  0.45191000  1.0
  H  H32  1  0.92879000  0.81673000  0.01073000  1.0
  H  H33  1  0.57121000  0.18327000  0.51073000  1.0
  H  H34  1  0.07121000  0.18327000  0.98927000  1.0
  H  H35  1  0.42879000  0.81673000  0.48927000  1.0
  H  H36  1  0.01805000  0.02738000  0.87688000  1.0
  H  H37  1  0.48195000  0.97262000  0.37688000  1.0
  H  H38  1  0.98195000  0.97262000  0.12312000  1.0
  H  H39  1  0.51805000  0.02738000  0.62312000  1.0
  H  H40  1  0.05692000  0.85534000  0.59912000  1.0
  H  H41  1  0.44308000  0.14466000  0.09913000  1.0
  H  H42  1  0.94307000  0.14465000  0.40088000  1.0
  H  H43  1  0.55692000  0.85534000  0.90087000  1.0
  C  C44  1  0.91426000  0.29746000  0.81830000  1.0
  C  C45  1  0.58575000  0.70254000  0.31830000  1.0
  C  C46  1  0.08575000  0.70254000  0.18171000  1.0
  C  C47  1  0.41426000  0.29746000  0.68170000  1.0
  C  C48  1  0.95048000  0.02779000  0.67501000  1.0
  C  C49  1  0.54952000  0.97221000  0.17501000  1.0
  C  C50  1  0.04951000  0.97221000  0.32499000  1.0
  C  C51  1  0.45048000  0.02779000  0.82499000  1.0
  C  C52  1  0.83596000  0.51125000  0.89656000  1.0
  C  C53  1  0.66404000  0.48875000  0.39656000  1.0
  C  C54  1  0.16404000  0.48875000  0.10344000  1.0
  C  C55  1  0.33596000  0.51125000  0.60344000  1.0
  C  C56  1  0.13118000  0.81948000  0.72280000  1.0
  C  C57  1  0.36882000  0.18052000  0.22280000  1.0
  C  C58  1  0.86882000  0.18052000  0.27720000  1.0
  C  C59  1  0.63118000  0.81948000  0.77720000  1.0
  C  C60  1  0.94156000  0.07891000  0.75348000  1.0
  C  C61  1  0.55844000  0.92109000  0.25348000  1.0
  C  C62  1  0.05844000  0.92109000  0.24652000  1.0
  C  C63  1  0.44156000  0.07891000  0.74651000  1.0
  C  C64  1  0.97407000  0.56273000  0.88074000  1.0
  C  C65  1  0.52593000  0.43727000  0.38074000  1.0
  C  C66  1  0.02593000  0.43727000  0.11926000  1.0
  C  C67  1  0.47407000  0.56273000  0.61926000  1.0
  C  C68  1  0.72792000  0.57320000  0.95781000  1.0
  C  C69  1  0.77208000  0.42680000  0.45781000  1.0
  C  C70  1  0.27208000  0.42680000  0.04219000  1.0
  C  C71  1  0.22792000  0.57320000  0.54219000  1.0
  C  C72  1  0.75949000  0.68367000  0.99954000  1.0
  C  C73  1  0.74051000  0.31634000  0.49954000  1.0
  C  C74  1  0.24051000  0.31633000  0.00046000  1.0
  C  C75  1  0.25949000  0.68367000  0.50046000  1.0
  C  C76  1  0.89783000  0.73066000  0.97996000  1.0
  C  C77  1  0.60218000  0.26934000  0.47995000  1.0
  C  C78  1  0.10217000  0.26934000  0.02005000  1.0
  C  C79  1  0.39782000  0.73067000  0.52004000  1.0
  C  C80  1  0.02676000  0.99387000  0.81428000  1.0
  C  C81  1  0.47324000  0.00613000  0.31428000  1.0
  C  C82  1  0.97325000  0.00613000  0.18572000  1.0
  C  C83  1  0.52676000  0.99386000  0.68572000  1.0
  C  C84  1  0.04758000  0.89695000  0.65978000  1.0
  C  C85  1  0.45242000  0.10304000  0.15978000  1.0
  C  C86  1  0.95242000  0.10305000  0.34022000  1.0
  C  C87  1  0.54758000  0.89695000  0.84022000  1.0
  Br  Br88  1  0.39299000  0.54134000  0.83655000  1.0
  Br  Br89  1  0.10701000  0.45866000  0.33655000  1.0
  Br  Br90  1  0.60701000  0.45866000  0.16345000  1.0
  Br  Br91  1  0.89299000  0.54134000  0.66345000  1.0
  Br  Br92  1  0.27207000  0.86411000  0.00544000  1.0
  Br  Br93  1  0.22792000  0.13590000  0.50545000  1.0
  Br  Br94  1  0.72793000  0.13589000  0.99456000  1.0
  Br  Br95  1  0.77208000  0.86410000  0.49455000  1.0
  N  N96  1  0.11900000  0.86759000  0.79890000  1.0
  N  N97  1  0.38099000  0.13241000  0.29890000  1.0
  N  N98  1  0.88100000  0.13241000  0.20110000  1.0
  N  N99  1  0.61901000  0.86759000  0.70110000  1.0
  N  N100  1  0.00259000  0.66965000  0.92200000  1.0
  N  N101  1  0.49741000  0.33034000  0.42200000  1.0
  N  N102  1  0.99741000  0.33035000  0.07800000  1.0
  N  N103  1  0.50259000  0.66965000  0.57800000  1.0
  N  N104  1  0.84686000  0.20993000  0.77305000  1.0
  N  N105  1  0.65314000  0.79007000  0.27305000  1.0
  N  N106  1  0.15314000  0.79007000  0.22695000  1.0
  N  N107  1  0.34686000  0.20993000  0.72695000  1.0
  N  N108  1  0.80062000  0.40309000  0.85318000  1.0
  N  N109  1  0.69938000  0.59691000  0.35318000  1.0
  N  N110  1  0.19937000  0.59691000  0.14682000  1.0
  N  N111  1  0.30063000  0.40309000  0.64682000  1.0
  O  O112  1  0.06581000  0.28028000  0.82824000  1.0
  O  O113  1  0.43419000  0.71972000  0.32824000  1.0
  O  O114  1  0.93419000  0.71972000  0.17177000  1.0
  O  O115  1  0.56580000  0.28028000  0.67176000  1.0
