# generated using pymatgen
data_PrH7C7SO8
_symmetry_space_group_name_H-M   'P 1'
_cell_length_a   7.01835000
_cell_length_b   9.50202000
_cell_length_c   14.05530000
_cell_angle_alpha   90.00000000
_cell_angle_beta   90.00000000
_cell_angle_gamma   89.99980000
_symmetry_Int_Tables_number   1
_chemical_formula_structural   PrH7C7SO8
_chemical_formula_sum   'Pr4 H28 C28 S4 O32'
_cell_volume   937.32690310
_cell_formula_units_Z   4
loop_
 _symmetry_equiv_pos_site_id
 _symmetry_equiv_pos_as_xyz
  1  'x, y, z'
loop_
 _atom_site_type_symbol
 _atom_site_label
 _atom_site_symmetry_multiplicity
 _atom_site_fract_x
 _atom_site_fract_y
 _atom_site_fract_z
 _atom_site_occupancy
  Pr  Pr0  1  0.96268000  0.68723000  0.87572000  1.0
  Pr  Pr1  1  0.53732000  0.31276000  0.37572000  1.0
  Pr  Pr2  1  0.03733000  0.18724000  0.62428000  1.0
  Pr  Pr3  1  0.46268000  0.81277000  0.12428000  1.0
  H  H4  1  0.47734000  0.08466000  0.82004000  1.0
  H  H5  1  0.02266000  0.91534000  0.32004000  1.0
  H  H6  1  0.52266000  0.58466000  0.67995000  1.0
  H  H7  1  0.97733000  0.41533000  0.17996000  1.0
  H  H8  1  0.47326000  0.33310000  0.78168000  1.0
  H  H9  1  0.02674000  0.66690000  0.28168000  1.0
  H  H10  1  0.52674000  0.83310000  0.71832000  1.0
  H  H11  1  0.97325000  0.16690000  0.21832000  1.0
  H  H12  1  0.46479000  0.43196000  0.08187000  1.0
  H  H13  1  0.03522000  0.56804000  0.58186000  1.0
  H  H14  1  0.53522000  0.93196000  0.41814000  1.0
  H  H15  1  0.96479000  0.06804000  0.91813000  1.0
  H  H16  1  0.66885000  0.93105000  0.88509000  1.0
  H  H17  1  0.83115000  0.06895000  0.38509000  1.0
  H  H18  1  0.33115000  0.43105000  0.61491000  1.0
  H  H19  1  0.16885000  0.56895000  0.11491000  1.0
  H  H20  1  0.30566000  0.91570000  0.90245000  1.0
  H  H21  1  0.19435000  0.08430000  0.40245000  1.0
  H  H22  1  0.69435000  0.41570000  0.59755000  1.0
  H  H23  1  0.80565000  0.58430000  0.09755000  1.0
  H  H24  1  0.75750000  0.97057000  0.78347000  1.0
  H  H25  1  0.74250000  0.02942000  0.28346000  1.0
  H  H26  1  0.24251000  0.47058000  0.71654000  1.0
  H  H27  1  0.25750000  0.52943000  0.21653000  1.0
  H  H28  1  0.18036000  0.93184000  0.80330000  1.0
  H  H29  1  0.31964000  0.06816000  0.30330000  1.0
  H  H30  1  0.81964000  0.43184000  0.69670000  1.0
  H  H31  1  0.68036000  0.56816000  0.19670000  1.0
  C  C32  1  0.46722000  0.17827000  0.15092000  1.0
  C  C33  1  0.03278000  0.82172000  0.65092000  1.0
  C  C34  1  0.53278000  0.67828000  0.34908000  1.0
  C  C35  1  0.96722000  0.32173000  0.84908000  1.0
  C  C36  1  0.47370000  0.30149000  0.85611000  1.0
  C  C37  1  0.02630000  0.69851000  0.35611000  1.0
  C  C38  1  0.52630000  0.80149000  0.64389000  1.0
  C  C39  1  0.97370000  0.19851000  0.14389000  1.0
  C  C40  1  0.47633000  0.16038000  0.87816000  1.0
  C  C41  1  0.02367000  0.83963000  0.37816000  1.0
  C  C42  1  0.52367000  0.66037000  0.62184000  1.0
  C  C43  1  0.97633000  0.33963000  0.12184000  1.0
  C  C44  1  0.47363000  0.10983000  0.97321000  1.0
  C  C45  1  0.02637000  0.89017000  0.47321000  1.0
  C  C46  1  0.52636000  0.60983000  0.52679000  1.0
  C  C47  1  0.97363000  0.39017000  0.02679000  1.0
  C  C48  1  0.46903000  0.35575000  0.02430000  1.0
  C  C49  1  0.03097000  0.64425000  0.52430000  1.0
  C  C50  1  0.53097000  0.85575000  0.47570000  1.0
  C  C51  1  0.96903000  0.14425000  0.97570000  1.0
  C  C52  1  0.47266000  0.21210000  0.04769000  1.0
  C  C53  1  0.02734000  0.78792000  0.54768000  1.0
  C  C54  1  0.52733000  0.71209000  0.45232000  1.0
  C  C55  1  0.97266000  0.28790000  0.95231000  1.0
  C  C56  1  0.46584000  0.40025000  0.93041000  1.0
  C  C57  1  0.03416000  0.59976000  0.43040000  1.0
  C  C58  1  0.53416000  0.90024000  0.56960000  1.0
  C  C59  1  0.96584000  0.09975000  0.06959000  1.0
  S  S60  1  0.43853000  0.57816000  0.89974000  1.0
  S  S61  1  0.06147000  0.42184000  0.39974000  1.0
  S  S62  1  0.56148000  0.07816000  0.60026000  1.0
  S  S63  1  0.93853000  0.92184000  0.10026000  1.0
  O  O64  1  0.28642000  0.58070000  0.82667000  1.0
  O  O65  1  0.21358000  0.41930000  0.32667000  1.0
  O  O66  1  0.71358000  0.08070000  0.67333000  1.0
  O  O67  1  0.78642000  0.91930000  0.17333000  1.0
  O  O68  1  0.37740000  0.65904000  0.98404000  1.0
  O  O69  1  0.12259000  0.34096000  0.48403000  1.0
  O  O70  1  0.62259000  0.15904000  0.51597000  1.0
  O  O71  1  0.87740000  0.84096000  0.01596000  1.0
  O  O72  1  0.61910000  0.63075000  0.86087000  1.0
  O  O73  1  0.88090000  0.36925000  0.36086000  1.0
  O  O74  1  0.38090000  0.13075000  0.63914000  1.0
  O  O75  1  0.11910000  0.86925000  0.13913000  1.0
  O  O76  1  0.50339000  0.27831000  0.20875000  1.0
  O  O77  1  0.99661000  0.72170000  0.70874000  1.0
  O  O78  1  0.49661000  0.77830000  0.29126000  1.0
  O  O79  1  0.00340000  0.22169000  0.79125000  1.0
  O  O80  1  0.42325000  0.05450000  0.17998000  1.0
  O  O81  1  0.07675000  0.94551000  0.67998000  1.0
  O  O82  1  0.57675000  0.55449000  0.32002000  1.0
  O  O83  1  0.92325000  0.44550000  0.82002000  1.0
  O  O84  1  0.47461000  0.97102000  0.98605000  1.0
  O  O85  1  0.02539000  0.02898000  0.48606000  1.0
  O  O86  1  0.52538000  0.47102000  0.51395000  1.0
  O  O87  1  0.97461000  0.52898000  0.01395000  1.0
  O  O88  1  0.19607000  0.88088000  0.86405000  1.0
  O  O89  1  0.30393000  0.11912000  0.36405000  1.0
  O  O90  1  0.80394000  0.38089000  0.63595000  1.0
  O  O91  1  0.69607000  0.61912000  0.13595000  1.0
  O  O92  1  0.76229000  0.90320000  0.83638000  1.0
  O  O93  1  0.73772000  0.09680000  0.33638000  1.0
  O  O94  1  0.23772000  0.40320000  0.66362000  1.0
  O  O95  1  0.26228000  0.59680000  0.16362000  1.0
