# generated using pymatgen
data_SnH16(C5O2)2
_symmetry_space_group_name_H-M   'P 1'
_cell_length_a   9.85130000
_cell_length_b   10.26970000
_cell_length_c   11.59200000
_cell_angle_alpha   90.00000000
_cell_angle_beta   99.26010000
_cell_angle_gamma   90.00000000
_symmetry_Int_Tables_number   1
_chemical_formula_structural   SnH16(C5O2)2
_chemical_formula_sum   'Sn4 H64 C40 O16'
_cell_volume   1157.47802149
_cell_formula_units_Z   4
loop_
 _symmetry_equiv_pos_site_id
 _symmetry_equiv_pos_as_xyz
  1  'x, y, z'
loop_
 _atom_site_type_symbol
 _atom_site_label
 _atom_site_symmetry_multiplicity
 _atom_site_fract_x
 _atom_site_fract_y
 _atom_site_fract_z
 _atom_site_occupancy
  Sn  Sn0  1  0.66343000  0.14930000  0.10409000  1.0
  Sn  Sn1  1  0.33657000  0.64929000  0.39591000  1.0
  Sn  Sn2  1  0.33657000  0.85070000  0.89591000  1.0
  Sn  Sn3  1  0.66343000  0.35070000  0.60409000  1.0
  H  H4  1  0.96458000  0.41479000  0.34808000  1.0
  H  H5  1  0.03543000  0.91480000  0.15192000  1.0
  H  H6  1  0.03542000  0.58520000  0.65192000  1.0
  H  H7  1  0.96458000  0.08520000  0.84808000  1.0
  H  H8  1  0.90398000  0.62902000  0.39459000  1.0
  H  H9  1  0.09602000  0.12903000  0.10541000  1.0
  H  H10  1  0.09602000  0.37098000  0.60541000  1.0
  H  H11  1  0.90398000  0.87097000  0.89459000  1.0
  H  H12  1  0.68328000  0.73678000  0.30961000  1.0
  H  H13  1  0.31672000  0.23678000  0.19039000  1.0
  H  H14  1  0.31672000  0.26323000  0.69038000  1.0
  H  H15  1  0.68328000  0.76322000  0.80961000  1.0
  H  H16  1  0.64022000  0.60227000  0.21613000  1.0
  H  H17  1  0.35979000  0.10227000  0.28387000  1.0
  H  H18  1  0.35979000  0.39773000  0.78387000  1.0
  H  H19  1  0.64022000  0.89773000  0.71613000  1.0
  H  H20  1  0.73951000  0.78112000  0.10961000  1.0
  H  H21  1  0.26049000  0.28112000  0.39039000  1.0
  H  H22  1  0.26050000  0.21888000  0.89039000  1.0
  H  H23  1  0.73951000  0.71889000  0.60961000  1.0
  H  H24  1  0.88988000  0.78069000  0.21600000  1.0
  H  H25  1  0.11012000  0.28069000  0.28400000  1.0
  H  H26  1  0.11012000  0.21931000  0.78400000  1.0
  H  H27  1  0.88988000  0.71931000  0.71600000  1.0
  H  H28  1  0.78877000  0.55366000  0.05226000  1.0
  H  H29  1  0.21123000  0.05366000  0.44774000  1.0
  H  H30  1  0.21123000  0.44633000  0.94774000  1.0
  H  H31  1  0.78877000  0.94634000  0.55226000  1.0
  H  H32  1  0.93083000  0.65545000  0.04145000  1.0
  H  H33  1  0.06917000  0.15545000  0.45854000  1.0
  H  H34  1  0.06917000  0.34454000  0.95854000  1.0
  H  H35  1  0.93084000  0.84455000  0.54146000  1.0
  H  H36  1  0.04856000  0.58390000  0.23518000  1.0
  H  H37  1  0.95144000  0.08390000  0.26482000  1.0
  H  H38  1  0.95144000  0.41609000  0.76482000  1.0
  H  H39  1  0.04856000  0.91610000  0.73518000  1.0
  H  H40  1  0.00881000  0.44600000  0.14303000  1.0
  H  H41  1  0.99119000  0.94599000  0.35697000  1.0
  H  H42  1  0.99119000  0.55400000  0.85697000  1.0
  H  H43  1  0.00881000  0.05400000  0.64304000  1.0
  H  H44  1  0.45597000  0.31020000  0.02402000  1.0
  H  H45  1  0.54403000  0.81020000  0.47597000  1.0
  H  H46  1  0.54403000  0.68981000  0.97597000  1.0
  H  H47  1  0.45596000  0.18980000  0.52403000  1.0
  H  H48  1  0.51689000  0.23096000  0.90282000  1.0
  H  H49  1  0.48310000  0.73096000  0.59718000  1.0
  H  H50  1  0.48311000  0.76904000  0.09718000  1.0
  H  H51  1  0.51689000  0.26904000  0.40282000  1.0
  H  H52  1  0.61246000  0.36395000  0.97742000  1.0
  H  H53  1  0.38753000  0.86395000  0.52258000  1.0
  H  H54  1  0.38754000  0.63605000  0.02258000  1.0
  H  H55  1  0.61246000  0.13605000  0.47742000  1.0
  H  H56  1  0.56827000  0.05938000  0.29148000  1.0
  H  H57  1  0.43173000  0.55938000  0.20852000  1.0
  H  H58  1  0.43173000  0.94061000  0.70852000  1.0
  H  H59  1  0.56827000  0.44062000  0.79148000  1.0
  H  H60  1  0.74624000  0.01367000  0.30140000  1.0
  H  H61  1  0.25376000  0.51367000  0.19860000  1.0
  H  H62  1  0.25376000  0.98633000  0.69860000  1.0
  H  H63  1  0.74623000  0.48633000  0.80140000  1.0
  H  H64  1  0.61370000  0.92556000  0.20704000  1.0
  H  H65  1  0.38630000  0.42556000  0.29296000  1.0
  H  H66  1  0.38630000  0.07444000  0.79296000  1.0
  H  H67  1  0.61370000  0.57443000  0.70704000  1.0
  C  C68  1  0.88826000  0.46427000  0.28270000  1.0
  C  C69  1  0.11174000  0.96428000  0.21730000  1.0
  C  C70  1  0.11173000  0.53573000  0.71730000  1.0
  C  C71  1  0.88827000  0.03572000  0.78271000  1.0
  C  C72  1  0.81859000  0.57106000  0.34633000  1.0
  C  C73  1  0.18141000  0.07107000  0.15367000  1.0
  C  C74  1  0.18141000  0.42894000  0.65367000  1.0
  C  C75  1  0.81859000  0.92894000  0.84633000  1.0
  C  C76  1  0.72713000  0.65988000  0.26086000  1.0
  C  C77  1  0.27287000  0.15989000  0.23914000  1.0
  C  C78  1  0.27287000  0.34012000  0.73914000  1.0
  C  C79  1  0.72713000  0.84012000  0.76086000  1.0
  C  C80  1  0.80705000  0.71843000  0.17061000  1.0
  C  C81  1  0.19295000  0.21843000  0.32939000  1.0
  C  C82  1  0.19295000  0.28157000  0.82938000  1.0
  C  C83  1  0.80705000  0.78157000  0.67061000  1.0
  C  C84  1  0.87100000  0.61202000  0.10416000  1.0
  C  C85  1  0.12900000  0.11202000  0.39584000  1.0
  C  C86  1  0.12900000  0.38798000  0.89584000  1.0
  C  C87  1  0.87100000  0.88798000  0.60416000  1.0
  C  C88  1  0.96411000  0.52430000  0.18939000  1.0
  C  C89  1  0.03589000  0.02430000  0.31061000  1.0
  C  C90  1  0.03589000  0.47570000  0.81061000  1.0
  C  C91  1  0.96412000  0.97570000  0.68940000  1.0
  C  C92  1  0.78924000  0.35745000  0.23179000  1.0
  C  C93  1  0.21076000  0.85746000  0.26821000  1.0
  C  C94  1  0.21075000  0.64255000  0.76821000  1.0
  C  C95  1  0.78925000  0.14255000  0.73179000  1.0
  C  C96  1  0.74490000  0.51231000  0.43886000  1.0
  C  C97  1  0.25510000  0.01232000  0.06113000  1.0
  C  C98  1  0.25509000  0.48770000  0.56113000  1.0
  C  C99  1  0.74490000  0.98769000  0.93887000  1.0
  C  C100  1  0.54614000  0.28029000  0.98663000  1.0
  C  C101  1  0.45386000  0.78029000  0.51337000  1.0
  C  C102  1  0.45386000  0.71971000  0.01337000  1.0
  C  C103  1  0.54613000  0.21970000  0.48663000  1.0
  C  C104  1  0.64659000  0.02021000  0.24425000  1.0
  C  C105  1  0.35341000  0.52021000  0.25574000  1.0
  C  C106  1  0.35341000  0.97979000  0.75575000  1.0
  C  C107  1  0.64659000  0.47979000  0.74425000  1.0
  O  O108  1  0.83846000  0.27257000  0.16556000  1.0
  O  O109  1  0.16155000  0.77257000  0.33443000  1.0
  O  O110  1  0.16154000  0.72743000  0.83444000  1.0
  O  O111  1  0.83846000  0.22743000  0.66556000  1.0
  O  O112  1  0.66804000  0.34803000  0.25168000  1.0
  O  O113  1  0.33197000  0.84804000  0.24832000  1.0
  O  O114  1  0.33195000  0.65197000  0.74833000  1.0
  O  O115  1  0.66805000  0.15197000  0.75168000  1.0
  O  O116  1  0.81439000  0.42609000  0.50745000  1.0
  O  O117  1  0.18561000  0.92609000  0.99255000  1.0
  O  O118  1  0.18561000  0.57391000  0.49255000  1.0
  O  O119  1  0.81439000  0.07391000  0.00745000  1.0
  O  O120  1  0.62540000  0.54315000  0.45349000  1.0
  O  O121  1  0.37460000  0.04315000  0.04651000  1.0
  O  O122  1  0.37459000  0.45685000  0.54650000  1.0
  O  O123  1  0.62540000  0.95685000  0.95349000  1.0
