# generated using pymatgen
data_RbH2CN4O
_symmetry_space_group_name_H-M   'P 1'
_cell_length_a   4.10140000
_cell_length_b   10.00690000
_cell_length_c   11.30940000
_cell_angle_alpha   90.00010000
_cell_angle_beta   90.00000000
_cell_angle_gamma   94.28460000
_symmetry_Int_Tables_number   1
_chemical_formula_structural   RbH2CN4O
_chemical_formula_sum   'Rb4 H8 C4 N16 O4'
_cell_volume   462.86656220
_cell_formula_units_Z   4
loop_
 _symmetry_equiv_pos_site_id
 _symmetry_equiv_pos_as_xyz
  1  'x, y, z'
loop_
 _atom_site_type_symbol
 _atom_site_label
 _atom_site_symmetry_multiplicity
 _atom_site_fract_x
 _atom_site_fract_y
 _atom_site_fract_z
 _atom_site_occupancy
  Rb  Rb0  1  0.75778000  0.82899000  0.59481000  1.0
  Rb  Rb1  1  0.24222000  0.67101000  0.09481000  1.0
  Rb  Rb2  1  0.24222000  0.17101000  0.40519000  1.0
  Rb  Rb3  1  0.75778000  0.32899000  0.90519000  1.0
  H  H4  1  0.41268000  0.88896000  0.33598000  1.0
  H  H5  1  0.58732000  0.61104000  0.83598000  1.0
  H  H6  1  0.58732000  0.11104000  0.66402000  1.0
  H  H7  1  0.41268000  0.38896000  0.16402000  1.0
  H  H8  1  0.15317000  0.78174000  0.39261000  1.0
  H  H9  1  0.84683000  0.71826000  0.89261000  1.0
  H  H10  1  0.84683000  0.21826000  0.60739000  1.0
  H  H11  1  0.15317000  0.28174000  0.10739000  1.0
  C  C12  1  0.08210000  0.99386000  0.94373000  1.0
  C  C13  1  0.91790000  0.50614000  0.44373000  1.0
  C  C14  1  0.91790000  0.00614000  0.05627000  1.0
  C  C15  1  0.08210000  0.49386000  0.55627000  1.0
  N  N16  1  0.35436000  0.04171000  0.78782000  1.0
  N  N17  1  0.64564000  0.45829000  0.28782000  1.0
  N  N18  1  0.64564000  0.95829000  0.21218000  1.0
  N  N19  1  0.35436000  0.54171000  0.71218000  1.0
  N  N20  1  0.09725000  0.87803000  0.88371000  1.0
  N  N21  1  0.90275000  0.62197000  0.38371000  1.0
  N  N22  1  0.90275000  0.12196000  0.11629000  1.0
  N  N23  1  0.09725000  0.37804000  0.61629000  1.0
  N  N24  1  0.27134000  0.91142000  0.78615000  1.0
  N  N25  1  0.72866000  0.58858000  0.28615000  1.0
  N  N26  1  0.72866000  0.08858000  0.21385000  1.0
  N  N27  1  0.27134000  0.41142000  0.71385000  1.0
  N  N28  1  0.23977000  0.09714000  0.88591000  1.0
  N  N29  1  0.76023000  0.40286000  0.38592000  1.0
  N  N30  1  0.76023000  0.90286000  0.11409000  1.0
  N  N31  1  0.23977000  0.59714000  0.61409000  1.0
  O  O32  1  0.27839000  0.86908000  0.40830000  1.0
  O  O33  1  0.72161000  0.63093000  0.90830000  1.0
  O  O34  1  0.72161000  0.13093000  0.59170000  1.0
  O  O35  1  0.27840000  0.36908000  0.09170000  1.0
